<?xml version="1.0" encoding="UTF-8"?>

<!-- generated on 2026-05-11T09:54:00.557630+00:00 by Eclipse SUMO netgenerate 1.26.0
<netgenerateConfiguration xmlns:xsi="http://www.w3.org/2001/XMLSchema-instance" xsi:noNamespaceSchemaLocation="http://sumo.dlr.de/xsd/netgenerateConfiguration.xsd">

    <spider_network>
        <spider value="true"/>
        <spider.arm-number value="4"/>
        <spider.space-radius value="80"/>
    </spider_network>

    <output>
        <output-file value="/raid/xuyifan/jiqiuyu/experiments/sumo_scenarios/networks/cross_2lane.net.xml"/>
    </output>

    <building_defaults>
        <default.lanenumber value="2"/>
        <default.speed value="13.89"/>
    </building_defaults>

    <junctions>
        <no-turnarounds value="true"/>
    </junctions>

</netgenerateConfiguration>
-->

<net version="1.20" junctionCornerDetail="5" limitTurnSpeed="5.50" xmlns:xsi="http://www.w3.org/2001/XMLSchema-instance" xsi:noNamespaceSchemaLocation="http://sumo.dlr.de/xsd/net_file.xsd">

    <location netOffset="400.00,400.00" convBoundary="0.00,0.00,800.00,800.00" origBoundary="-400.00,-400.00,400.00,400.00" projParameter="!"/>

    <edge id=":A1_0" function="internal">
        <lane id=":A1_0_0" index="0" speed="6.51" length="9.03" shape="395.20,410.40 394.85,407.95 393.80,406.20 392.05,405.15 389.60,404.80"/>
    </edge>
    <edge id=":A1_1" function="internal">
        <lane id=":A1_1_0" index="0" speed="13.89" length="20.80" shape="395.20,410.40 395.20,389.60"/>
        <lane id=":A1_1_1" index="1" speed="13.89" length="20.80" shape="398.40,410.40 398.40,389.60"/>
    </edge>
    <edge id=":A1_3" function="internal">
        <lane id=":A1_3_0" index="0" speed="9.02" length="18.33" shape="398.40,410.40 399.48,406.14 402.28,402.28 406.14,399.48 410.40,398.40"/>
    </edge>
    <edge id=":A1_4" function="internal">
        <lane id=":A1_4_0" index="0" speed="6.51" length="9.03" shape="410.40,404.80 407.95,405.15 406.20,406.20 405.15,407.95 404.80,410.40"/>
    </edge>
    <edge id=":A1_5" function="internal">
        <lane id=":A1_5_0" index="0" speed="13.89" length="20.80" shape="410.40,404.80 389.60,404.80"/>
        <lane id=":A1_5_1" index="1" speed="13.89" length="20.80" shape="410.40,401.60 389.60,401.60"/>
    </edge>
    <edge id=":A1_7" function="internal">
        <lane id=":A1_7_0" index="0" speed="9.02" length="18.33" shape="410.40,401.60 406.14,400.52 402.28,397.72 399.48,393.86 398.40,389.60"/>
    </edge>
    <edge id=":A1_8" function="internal">
        <lane id=":A1_8_0" index="0" speed="6.51" length="9.03" shape="404.80,389.60 405.15,392.05 406.20,393.80 407.95,394.85 410.40,395.20"/>
    </edge>
    <edge id=":A1_9" function="internal">
        <lane id=":A1_9_0" index="0" speed="13.89" length="20.80" shape="404.80,389.60 404.80,410.40"/>
        <lane id=":A1_9_1" index="1" speed="13.89" length="20.80" shape="401.60,389.60 401.60,410.40"/>
    </edge>
    <edge id=":A1_11" function="internal">
        <lane id=":A1_11_0" index="0" speed="9.02" length="18.33" shape="401.60,389.60 400.52,393.86 397.72,397.72 393.86,400.52 389.60,401.60"/>
    </edge>
    <edge id=":A1_12" function="internal">
        <lane id=":A1_12_0" index="0" speed="6.51" length="9.03" shape="389.60,395.20 392.05,394.85 393.80,393.80 394.85,392.05 395.20,389.60"/>
    </edge>
    <edge id=":A1_13" function="internal">
        <lane id=":A1_13_0" index="0" speed="13.89" length="20.80" shape="389.60,395.20 410.40,395.20"/>
        <lane id=":A1_13_1" index="1" speed="13.89" length="20.80" shape="389.60,398.40 410.40,398.40"/>
    </edge>
    <edge id=":A1_15" function="internal">
        <lane id=":A1_15_0" index="0" speed="9.02" length="18.33" shape="389.60,398.40 393.86,399.48 397.72,402.28 400.52,406.14 401.60,410.40"/>
    </edge>
    <edge id=":B1_0" function="internal">
        <lane id=":B1_0_0" index="0" speed="13.89" length="21.30" shape="486.65,404.80 483.84,405.57 480.07,407.89 475.33,411.75 469.64,417.15"/>
    </edge>
    <edge id=":B1_1" function="internal">
        <lane id=":B1_1_0" index="0" speed="13.89" length="26.10" shape="486.65,404.80 460.55,404.80"/>
        <lane id=":B1_1_1" index="1" speed="13.89" length="26.10" shape="486.65,401.60 460.55,401.60"/>
    </edge>
    <edge id=":B1_3" function="internal">
        <lane id=":B1_3_0" index="0" speed="13.89" length="3.39" shape="486.65,401.60 483.34,400.88"/>
    </edge>
    <edge id=":B1_16" function="internal">
        <lane id=":B1_16_0" index="0" speed="13.89" length="22.87" shape="483.34,400.88 482.56,400.71 477.61,398.04 471.79,393.60 465.11,387.38"/>
    </edge>
    <edge id=":B1_4" function="internal">
        <lane id=":B1_4_0" index="0" speed="13.89" length="21.30" shape="469.64,382.85 475.33,388.25 480.07,392.11 483.84,394.43 486.65,395.20"/>
    </edge>
    <edge id=":B1_5" function="internal">
        <lane id=":B1_5_0" index="0" speed="12.99" length="39.11" shape="469.64,382.85 476.07,391.43 478.21,400.00 476.07,408.57 469.64,417.15"/>
        <lane id=":B1_5_1" index="1" speed="12.13" length="33.95" shape="467.38,385.11 472.96,392.56 474.82,400.00 472.96,407.44 467.38,414.89"/>
    </edge>
    <edge id=":B1_7" function="internal">
        <lane id=":B1_7_0" index="0" speed="8.14" length="23.57" shape="467.38,385.11 470.66,390.65 470.31,395.99 466.78,400.01 460.55,401.60"/>
    </edge>
    <edge id=":B1_8" function="internal">
        <lane id=":B1_8_0" index="0" speed="5.47" length="9.74" shape="460.55,395.20 463.64,394.85 465.06,393.81 464.79,392.07 462.85,389.64"/>
    </edge>
    <edge id=":B1_9" function="internal">
        <lane id=":B1_9_0" index="0" speed="13.89" length="26.10" shape="460.55,395.20 486.65,395.20"/>
        <lane id=":B1_9_1" index="1" speed="13.89" length="26.10" shape="460.55,398.40 486.65,398.40"/>
    </edge>
    <edge id=":B1_11" function="internal">
        <lane id=":B1_11_0" index="0" speed="8.14" length="2.95" shape="460.55,398.40 463.40,399.13"/>
    </edge>
    <edge id=":B1_17" function="internal">
        <lane id=":B1_17_0" index="0" speed="8.14" length="20.62" shape="463.40,399.13 466.78,399.99 470.31,404.01 470.66,409.35 467.38,414.89"/>
    </edge>
    <edge id=":B1_12" function="internal">
        <lane id=":B1_12_0" index="0" speed="5.47" length="9.74" shape="462.85,410.36 464.79,407.93 465.06,406.19 463.64,405.15 460.55,404.80"/>
    </edge>
    <edge id=":B1_13" function="internal">
        <lane id=":B1_13_0" index="0" speed="10.18" length="23.63" shape="462.85,410.36 466.74,405.18 468.03,400.00 466.74,394.82 462.85,389.64"/>
        <lane id=":B1_13_1" index="1" speed="11.20" length="28.79" shape="465.11,412.62 469.85,406.31 471.43,400.00 469.85,393.69 465.11,387.38"/>
    </edge>
    <edge id=":B1_15" function="internal">
        <lane id=":B1_15_0" index="0" speed="13.89" length="26.26" shape="465.11,412.62 471.79,406.40 477.61,401.96 482.56,399.29 486.65,398.40"/>
    </edge>
    <edge id=":B2_0" function="internal">
        <lane id=":B2_0_0" index="0" speed="13.89" length="21.30" shape="395.20,486.65 394.43,483.84 392.11,480.07 388.25,475.33 382.85,469.64"/>
    </edge>
    <edge id=":B2_1" function="internal">
        <lane id=":B2_1_0" index="0" speed="13.89" length="26.10" shape="395.20,486.65 395.20,460.55"/>
        <lane id=":B2_1_1" index="1" speed="13.89" length="26.10" shape="398.40,486.65 398.40,460.55"/>
    </edge>
    <edge id=":B2_3" function="internal">
        <lane id=":B2_3_0" index="0" speed="13.89" length="3.39" shape="398.40,486.65 399.12,483.34"/>
    </edge>
    <edge id=":B2_16" function="internal">
        <lane id=":B2_16_0" index="0" speed="13.89" length="22.87" shape="399.12,483.34 399.29,482.56 401.96,477.61 406.40,471.79 412.62,465.11"/>
    </edge>
    <edge id=":B2_4" function="internal">
        <lane id=":B2_4_0" index="0" speed="13.89" length="21.30" shape="417.15,469.64 411.75,475.33 407.89,480.07 405.57,483.84 404.80,486.65"/>
    </edge>
    <edge id=":B2_5" function="internal">
        <lane id=":B2_5_0" index="0" speed="12.99" length="39.11" shape="417.15,469.64 408.57,476.07 400.00,478.21 391.43,476.07 382.85,469.64"/>
        <lane id=":B2_5_1" index="1" speed="12.13" length="33.95" shape="414.89,467.38 407.44,472.96 400.00,474.82 392.56,472.96 385.11,467.38"/>
    </edge>
    <edge id=":B2_7" function="internal">
        <lane id=":B2_7_0" index="0" speed="8.14" length="23.57" shape="414.89,467.38 409.35,470.66 404.01,470.31 399.99,466.78 398.40,460.55"/>
    </edge>
    <edge id=":B2_8" function="internal">
        <lane id=":B2_8_0" index="0" speed="5.47" length="9.74" shape="404.80,460.55 405.15,463.64 406.19,465.06 407.93,464.79 410.36,462.85"/>
    </edge>
    <edge id=":B2_9" function="internal">
        <lane id=":B2_9_0" index="0" speed="13.89" length="26.10" shape="404.80,460.55 404.80,486.65"/>
        <lane id=":B2_9_1" index="1" speed="13.89" length="26.10" shape="401.60,460.55 401.60,486.65"/>
    </edge>
    <edge id=":B2_11" function="internal">
        <lane id=":B2_11_0" index="0" speed="8.14" length="2.95" shape="401.60,460.55 400.87,463.40"/>
    </edge>
    <edge id=":B2_17" function="internal">
        <lane id=":B2_17_0" index="0" speed="8.14" length="20.62" shape="400.87,463.40 400.01,466.78 395.99,470.31 390.65,470.66 385.11,467.38"/>
    </edge>
    <edge id=":B2_12" function="internal">
        <lane id=":B2_12_0" index="0" speed="5.47" length="9.74" shape="389.64,462.85 392.07,464.79 393.81,465.06 394.85,463.64 395.20,460.55"/>
    </edge>
    <edge id=":B2_13" function="internal">
        <lane id=":B2_13_0" index="0" speed="10.18" length="23.63" shape="389.64,462.85 394.82,466.74 400.00,468.03 405.18,466.74 410.36,462.85"/>
        <lane id=":B2_13_1" index="1" speed="11.20" length="28.79" shape="387.38,465.11 393.69,469.85 400.00,471.43 406.31,469.85 412.62,465.11"/>
    </edge>
    <edge id=":B2_15" function="internal">
        <lane id=":B2_15_0" index="0" speed="13.89" length="26.26" shape="387.38,465.11 393.60,471.79 398.04,477.61 400.71,482.56 401.60,486.65"/>
    </edge>
    <edge id=":B3_0" function="internal">
        <lane id=":B3_0_0" index="0" speed="13.89" length="21.30" shape="330.36,417.15 324.67,411.75 319.93,407.89 316.16,405.57 313.35,404.80"/>
    </edge>
    <edge id=":B3_1" function="internal">
        <lane id=":B3_1_0" index="0" speed="12.99" length="39.11" shape="330.36,417.15 323.93,408.57 321.79,400.00 323.93,391.43 330.36,382.85"/>
        <lane id=":B3_1_1" index="1" speed="12.13" length="33.95" shape="332.62,414.89 327.04,407.44 325.18,400.00 327.04,392.56 332.62,385.11"/>
    </edge>
    <edge id=":B3_3" function="internal">
        <lane id=":B3_3_0" index="0" speed="8.14" length="23.57" shape="332.62,414.89 329.34,409.35 329.69,404.01 333.22,399.99 339.45,398.40"/>
    </edge>
    <edge id=":B3_4" function="internal">
        <lane id=":B3_4_0" index="0" speed="5.47" length="9.74" shape="339.45,404.80 336.36,405.15 334.94,406.19 335.21,407.93 337.15,410.36"/>
    </edge>
    <edge id=":B3_5" function="internal">
        <lane id=":B3_5_0" index="0" speed="13.89" length="26.10" shape="339.45,404.80 313.35,404.80"/>
        <lane id=":B3_5_1" index="1" speed="13.89" length="26.10" shape="339.45,401.60 313.35,401.60"/>
    </edge>
    <edge id=":B3_7" function="internal">
        <lane id=":B3_7_0" index="0" speed="8.14" length="2.95" shape="339.45,401.60 336.60,400.87"/>
    </edge>
    <edge id=":B3_16" function="internal">
        <lane id=":B3_16_0" index="0" speed="8.14" length="20.62" shape="336.60,400.87 333.22,400.01 329.69,395.99 329.34,390.65 332.62,385.11"/>
    </edge>
    <edge id=":B3_8" function="internal">
        <lane id=":B3_8_0" index="0" speed="5.47" length="9.74" shape="337.15,389.64 335.21,392.07 334.94,393.81 336.36,394.85 339.45,395.20"/>
    </edge>
    <edge id=":B3_9" function="internal">
        <lane id=":B3_9_0" index="0" speed="10.18" length="23.63" shape="337.15,389.64 333.26,394.82 331.97,400.00 333.26,405.18 337.15,410.36"/>
        <lane id=":B3_9_1" index="1" speed="11.20" length="28.79" shape="334.89,387.38 330.15,393.69 328.57,400.00 330.15,406.31 334.89,412.62"/>
    </edge>
    <edge id=":B3_11" function="internal">
        <lane id=":B3_11_0" index="0" speed="13.89" length="26.26" shape="334.89,387.38 328.21,393.60 322.39,398.04 317.44,400.71 313.35,401.60"/>
    </edge>
    <edge id=":B3_12" function="internal">
        <lane id=":B3_12_0" index="0" speed="13.89" length="21.30" shape="313.35,395.20 316.16,394.43 319.93,392.11 324.67,388.25 330.36,382.85"/>
    </edge>
    <edge id=":B3_13" function="internal">
        <lane id=":B3_13_0" index="0" speed="13.89" length="26.10" shape="313.35,395.20 339.45,395.20"/>
        <lane id=":B3_13_1" index="1" speed="13.89" length="26.10" shape="313.35,398.40 339.45,398.40"/>
    </edge>
    <edge id=":B3_15" function="internal">
        <lane id=":B3_15_0" index="0" speed="13.89" length="3.39" shape="313.35,398.40 316.66,399.12"/>
    </edge>
    <edge id=":B3_17" function="internal">
        <lane id=":B3_17_0" index="0" speed="13.89" length="22.87" shape="316.66,399.12 317.44,399.29 322.39,401.96 328.21,406.40 334.89,412.62"/>
    </edge>
    <edge id=":B4_0" function="internal">
        <lane id=":B4_0_0" index="0" speed="5.47" length="9.74" shape="395.20,339.45 394.85,336.36 393.81,334.94 392.07,335.21 389.64,337.15"/>
    </edge>
    <edge id=":B4_1" function="internal">
        <lane id=":B4_1_0" index="0" speed="13.89" length="26.10" shape="395.20,339.45 395.20,313.35"/>
        <lane id=":B4_1_1" index="1" speed="13.89" length="26.10" shape="398.40,339.45 398.40,313.35"/>
    </edge>
    <edge id=":B4_3" function="internal">
        <lane id=":B4_3_0" index="0" speed="8.14" length="2.95" shape="398.40,339.45 399.13,336.60"/>
    </edge>
    <edge id=":B4_16" function="internal">
        <lane id=":B4_16_0" index="0" speed="8.14" length="20.62" shape="399.13,336.60 399.99,333.22 404.01,329.69 409.35,329.34 414.89,332.62"/>
    </edge>
    <edge id=":B4_4" function="internal">
        <lane id=":B4_4_0" index="0" speed="5.47" length="9.74" shape="410.36,337.15 407.93,335.21 406.19,334.94 405.15,336.36 404.80,339.45"/>
    </edge>
    <edge id=":B4_5" function="internal">
        <lane id=":B4_5_0" index="0" speed="10.18" length="23.63" shape="410.36,337.15 405.18,333.26 400.00,331.97 394.82,333.26 389.64,337.15"/>
        <lane id=":B4_5_1" index="1" speed="11.20" length="28.79" shape="412.62,334.89 406.31,330.15 400.00,328.57 393.69,330.15 387.38,334.89"/>
    </edge>
    <edge id=":B4_7" function="internal">
        <lane id=":B4_7_0" index="0" speed="13.89" length="26.26" shape="412.62,334.89 406.40,328.21 401.96,322.39 399.29,317.44 398.40,313.35"/>
    </edge>
    <edge id=":B4_8" function="internal">
        <lane id=":B4_8_0" index="0" speed="13.89" length="21.30" shape="404.80,313.35 405.57,316.16 407.89,319.93 411.75,324.67 417.15,330.36"/>
    </edge>
    <edge id=":B4_9" function="internal">
        <lane id=":B4_9_0" index="0" speed="13.89" length="26.10" shape="404.80,313.35 404.80,339.45"/>
        <lane id=":B4_9_1" index="1" speed="13.89" length="26.10" shape="401.60,313.35 401.60,339.45"/>
    </edge>
    <edge id=":B4_11" function="internal">
        <lane id=":B4_11_0" index="0" speed="13.89" length="3.39" shape="401.60,313.35 400.88,316.66"/>
    </edge>
    <edge id=":B4_17" function="internal">
        <lane id=":B4_17_0" index="0" speed="13.89" length="22.87" shape="400.88,316.66 400.71,317.44 398.04,322.39 393.60,328.21 387.38,334.89"/>
    </edge>
    <edge id=":B4_12" function="internal">
        <lane id=":B4_12_0" index="0" speed="13.89" length="21.30" shape="382.85,330.36 388.25,324.67 392.11,319.93 394.43,316.16 395.20,313.35"/>
    </edge>
    <edge id=":B4_13" function="internal">
        <lane id=":B4_13_0" index="0" speed="12.99" length="39.11" shape="382.85,330.36 391.43,323.93 400.00,321.79 408.57,323.93 417.15,330.36"/>
        <lane id=":B4_13_1" index="1" speed="12.13" length="33.95" shape="385.11,332.62 392.56,327.04 400.00,325.18 407.44,327.04 414.89,332.62"/>
    </edge>
    <edge id=":B4_15" function="internal">
        <lane id=":B4_15_0" index="0" speed="8.14" length="23.57" shape="385.11,332.62 390.65,329.34 395.99,329.69 400.01,333.22 401.60,339.45"/>
    </edge>
    <edge id=":C1_0" function="internal">
        <lane id=":C1_0_0" index="0" speed="13.89" length="21.30" shape="566.65,404.80 563.84,405.57 560.07,407.89 555.33,411.75 549.64,417.15"/>
    </edge>
    <edge id=":C1_1" function="internal">
        <lane id=":C1_1_0" index="0" speed="13.89" length="26.10" shape="566.65,404.80 540.55,404.80"/>
        <lane id=":C1_1_1" index="1" speed="13.89" length="26.10" shape="566.65,401.60 540.55,401.60"/>
    </edge>
    <edge id=":C1_3" function="internal">
        <lane id=":C1_3_0" index="0" speed="13.89" length="3.39" shape="566.65,401.60 563.34,400.88"/>
    </edge>
    <edge id=":C1_16" function="internal">
        <lane id=":C1_16_0" index="0" speed="13.89" length="22.87" shape="563.34,400.88 562.56,400.71 557.61,398.04 551.79,393.60 545.11,387.38"/>
    </edge>
    <edge id=":C1_4" function="internal">
        <lane id=":C1_4_0" index="0" speed="13.89" length="21.30" shape="549.64,382.85 555.33,388.25 560.07,392.11 563.84,394.43 566.65,395.20"/>
    </edge>
    <edge id=":C1_5" function="internal">
        <lane id=":C1_5_0" index="0" speed="12.99" length="39.11" shape="549.64,382.85 556.07,391.43 558.21,400.00 556.07,408.57 549.64,417.15"/>
        <lane id=":C1_5_1" index="1" speed="12.13" length="33.95" shape="547.38,385.11 552.96,392.56 554.82,400.00 552.96,407.44 547.38,414.89"/>
    </edge>
    <edge id=":C1_7" function="internal">
        <lane id=":C1_7_0" index="0" speed="8.14" length="23.57" shape="547.38,385.11 550.66,390.65 550.31,395.99 546.78,400.01 540.55,401.60"/>
    </edge>
    <edge id=":C1_8" function="internal">
        <lane id=":C1_8_0" index="0" speed="5.47" length="9.74" shape="540.55,395.20 543.64,394.85 545.06,393.81 544.79,392.07 542.85,389.64"/>
    </edge>
    <edge id=":C1_9" function="internal">
        <lane id=":C1_9_0" index="0" speed="13.89" length="26.10" shape="540.55,395.20 566.65,395.20"/>
        <lane id=":C1_9_1" index="1" speed="13.89" length="26.10" shape="540.55,398.40 566.65,398.40"/>
    </edge>
    <edge id=":C1_11" function="internal">
        <lane id=":C1_11_0" index="0" speed="8.14" length="2.95" shape="540.55,398.40 543.40,399.13"/>
    </edge>
    <edge id=":C1_17" function="internal">
        <lane id=":C1_17_0" index="0" speed="8.14" length="20.62" shape="543.40,399.13 546.78,399.99 550.31,404.01 550.66,409.35 547.38,414.89"/>
    </edge>
    <edge id=":C1_12" function="internal">
        <lane id=":C1_12_0" index="0" speed="5.47" length="9.74" shape="542.85,410.36 544.79,407.93 545.06,406.19 543.64,405.15 540.55,404.80"/>
    </edge>
    <edge id=":C1_13" function="internal">
        <lane id=":C1_13_0" index="0" speed="10.18" length="23.63" shape="542.85,410.36 546.74,405.18 548.03,400.00 546.74,394.82 542.85,389.64"/>
        <lane id=":C1_13_1" index="1" speed="11.20" length="28.79" shape="545.11,412.62 549.85,406.31 551.43,400.00 549.85,393.69 545.11,387.38"/>
    </edge>
    <edge id=":C1_15" function="internal">
        <lane id=":C1_15_0" index="0" speed="13.89" length="26.26" shape="545.11,412.62 551.79,406.40 557.61,401.96 562.56,399.29 566.65,398.40"/>
    </edge>
    <edge id=":C2_0" function="internal">
        <lane id=":C2_0_0" index="0" speed="13.89" length="21.30" shape="395.20,566.65 394.43,563.84 392.11,560.07 388.25,555.33 382.85,549.64"/>
    </edge>
    <edge id=":C2_1" function="internal">
        <lane id=":C2_1_0" index="0" speed="13.89" length="26.10" shape="395.20,566.65 395.20,540.55"/>
        <lane id=":C2_1_1" index="1" speed="13.89" length="26.10" shape="398.40,566.65 398.40,540.55"/>
    </edge>
    <edge id=":C2_3" function="internal">
        <lane id=":C2_3_0" index="0" speed="13.89" length="3.39" shape="398.40,566.65 399.12,563.34"/>
    </edge>
    <edge id=":C2_16" function="internal">
        <lane id=":C2_16_0" index="0" speed="13.89" length="22.87" shape="399.12,563.34 399.29,562.56 401.96,557.61 406.40,551.79 412.62,545.11"/>
    </edge>
    <edge id=":C2_4" function="internal">
        <lane id=":C2_4_0" index="0" speed="13.89" length="21.30" shape="417.15,549.64 411.75,555.33 407.89,560.07 405.57,563.84 404.80,566.65"/>
    </edge>
    <edge id=":C2_5" function="internal">
        <lane id=":C2_5_0" index="0" speed="12.99" length="39.11" shape="417.15,549.64 408.57,556.07 400.00,558.21 391.43,556.07 382.85,549.64"/>
        <lane id=":C2_5_1" index="1" speed="12.13" length="33.95" shape="414.89,547.38 407.44,552.96 400.00,554.82 392.56,552.96 385.11,547.38"/>
    </edge>
    <edge id=":C2_7" function="internal">
        <lane id=":C2_7_0" index="0" speed="8.14" length="23.57" shape="414.89,547.38 409.35,550.66 404.01,550.31 399.99,546.78 398.40,540.55"/>
    </edge>
    <edge id=":C2_8" function="internal">
        <lane id=":C2_8_0" index="0" speed="5.47" length="9.74" shape="404.80,540.55 405.15,543.64 406.19,545.06 407.93,544.79 410.36,542.85"/>
    </edge>
    <edge id=":C2_9" function="internal">
        <lane id=":C2_9_0" index="0" speed="13.89" length="26.10" shape="404.80,540.55 404.80,566.65"/>
        <lane id=":C2_9_1" index="1" speed="13.89" length="26.10" shape="401.60,540.55 401.60,566.65"/>
    </edge>
    <edge id=":C2_11" function="internal">
        <lane id=":C2_11_0" index="0" speed="8.14" length="2.95" shape="401.60,540.55 400.87,543.40"/>
    </edge>
    <edge id=":C2_17" function="internal">
        <lane id=":C2_17_0" index="0" speed="8.14" length="20.62" shape="400.87,543.40 400.01,546.78 395.99,550.31 390.65,550.66 385.11,547.38"/>
    </edge>
    <edge id=":C2_12" function="internal">
        <lane id=":C2_12_0" index="0" speed="5.47" length="9.74" shape="389.64,542.85 392.07,544.79 393.81,545.06 394.85,543.64 395.20,540.55"/>
    </edge>
    <edge id=":C2_13" function="internal">
        <lane id=":C2_13_0" index="0" speed="10.18" length="23.63" shape="389.64,542.85 394.82,546.74 400.00,548.03 405.18,546.74 410.36,542.85"/>
        <lane id=":C2_13_1" index="1" speed="11.20" length="28.79" shape="387.38,545.11 393.69,549.85 400.00,551.43 406.31,549.85 412.62,545.11"/>
    </edge>
    <edge id=":C2_15" function="internal">
        <lane id=":C2_15_0" index="0" speed="13.89" length="26.26" shape="387.38,545.11 393.60,551.79 398.04,557.61 400.71,562.56 401.60,566.65"/>
    </edge>
    <edge id=":C3_0" function="internal">
        <lane id=":C3_0_0" index="0" speed="13.89" length="21.30" shape="250.36,417.15 244.67,411.75 239.93,407.89 236.16,405.57 233.35,404.80"/>
    </edge>
    <edge id=":C3_1" function="internal">
        <lane id=":C3_1_0" index="0" speed="12.99" length="39.11" shape="250.36,417.15 243.93,408.57 241.79,400.00 243.93,391.43 250.36,382.85"/>
        <lane id=":C3_1_1" index="1" speed="12.13" length="33.95" shape="252.62,414.89 247.04,407.44 245.18,400.00 247.04,392.56 252.62,385.11"/>
    </edge>
    <edge id=":C3_3" function="internal">
        <lane id=":C3_3_0" index="0" speed="8.14" length="23.57" shape="252.62,414.89 249.34,409.35 249.69,404.01 253.22,399.99 259.45,398.40"/>
    </edge>
    <edge id=":C3_4" function="internal">
        <lane id=":C3_4_0" index="0" speed="5.47" length="9.74" shape="259.45,404.80 256.36,405.15 254.94,406.19 255.21,407.93 257.15,410.36"/>
    </edge>
    <edge id=":C3_5" function="internal">
        <lane id=":C3_5_0" index="0" speed="13.89" length="26.10" shape="259.45,404.80 233.35,404.80"/>
        <lane id=":C3_5_1" index="1" speed="13.89" length="26.10" shape="259.45,401.60 233.35,401.60"/>
    </edge>
    <edge id=":C3_7" function="internal">
        <lane id=":C3_7_0" index="0" speed="8.14" length="2.95" shape="259.45,401.60 256.60,400.87"/>
    </edge>
    <edge id=":C3_16" function="internal">
        <lane id=":C3_16_0" index="0" speed="8.14" length="20.62" shape="256.60,400.87 253.22,400.01 249.69,395.99 249.34,390.65 252.62,385.11"/>
    </edge>
    <edge id=":C3_8" function="internal">
        <lane id=":C3_8_0" index="0" speed="5.47" length="9.74" shape="257.15,389.64 255.21,392.07 254.94,393.81 256.36,394.85 259.45,395.20"/>
    </edge>
    <edge id=":C3_9" function="internal">
        <lane id=":C3_9_0" index="0" speed="10.18" length="23.63" shape="257.15,389.64 253.26,394.82 251.97,400.00 253.26,405.18 257.15,410.36"/>
        <lane id=":C3_9_1" index="1" speed="11.20" length="28.79" shape="254.89,387.38 250.15,393.69 248.57,400.00 250.15,406.31 254.89,412.62"/>
    </edge>
    <edge id=":C3_11" function="internal">
        <lane id=":C3_11_0" index="0" speed="13.89" length="26.26" shape="254.89,387.38 248.21,393.60 242.39,398.04 237.44,400.71 233.35,401.60"/>
    </edge>
    <edge id=":C3_12" function="internal">
        <lane id=":C3_12_0" index="0" speed="13.89" length="21.30" shape="233.35,395.20 236.16,394.43 239.93,392.11 244.67,388.25 250.36,382.85"/>
    </edge>
    <edge id=":C3_13" function="internal">
        <lane id=":C3_13_0" index="0" speed="13.89" length="26.10" shape="233.35,395.20 259.45,395.20"/>
        <lane id=":C3_13_1" index="1" speed="13.89" length="26.10" shape="233.35,398.40 259.45,398.40"/>
    </edge>
    <edge id=":C3_15" function="internal">
        <lane id=":C3_15_0" index="0" speed="13.89" length="3.39" shape="233.35,398.40 236.66,399.12"/>
    </edge>
    <edge id=":C3_17" function="internal">
        <lane id=":C3_17_0" index="0" speed="13.89" length="22.87" shape="236.66,399.12 237.44,399.29 242.39,401.96 248.21,406.40 254.89,412.62"/>
    </edge>
    <edge id=":C4_0" function="internal">
        <lane id=":C4_0_0" index="0" speed="5.47" length="9.74" shape="395.20,259.45 394.85,256.36 393.81,254.94 392.07,255.21 389.64,257.15"/>
    </edge>
    <edge id=":C4_1" function="internal">
        <lane id=":C4_1_0" index="0" speed="13.89" length="26.10" shape="395.20,259.45 395.20,233.35"/>
        <lane id=":C4_1_1" index="1" speed="13.89" length="26.10" shape="398.40,259.45 398.40,233.35"/>
    </edge>
    <edge id=":C4_3" function="internal">
        <lane id=":C4_3_0" index="0" speed="8.14" length="2.95" shape="398.40,259.45 399.13,256.60"/>
    </edge>
    <edge id=":C4_16" function="internal">
        <lane id=":C4_16_0" index="0" speed="8.14" length="20.62" shape="399.13,256.60 399.99,253.22 404.01,249.69 409.35,249.34 414.89,252.62"/>
    </edge>
    <edge id=":C4_4" function="internal">
        <lane id=":C4_4_0" index="0" speed="5.47" length="9.74" shape="410.36,257.15 407.93,255.21 406.19,254.94 405.15,256.36 404.80,259.45"/>
    </edge>
    <edge id=":C4_5" function="internal">
        <lane id=":C4_5_0" index="0" speed="10.18" length="23.63" shape="410.36,257.15 405.18,253.26 400.00,251.97 394.82,253.26 389.64,257.15"/>
        <lane id=":C4_5_1" index="1" speed="11.20" length="28.79" shape="412.62,254.89 406.31,250.15 400.00,248.57 393.69,250.15 387.38,254.89"/>
    </edge>
    <edge id=":C4_7" function="internal">
        <lane id=":C4_7_0" index="0" speed="13.89" length="26.26" shape="412.62,254.89 406.40,248.21 401.96,242.39 399.29,237.44 398.40,233.35"/>
    </edge>
    <edge id=":C4_8" function="internal">
        <lane id=":C4_8_0" index="0" speed="13.89" length="21.30" shape="404.80,233.35 405.57,236.16 407.89,239.93 411.75,244.67 417.15,250.36"/>
    </edge>
    <edge id=":C4_9" function="internal">
        <lane id=":C4_9_0" index="0" speed="13.89" length="26.10" shape="404.80,233.35 404.80,259.45"/>
        <lane id=":C4_9_1" index="1" speed="13.89" length="26.10" shape="401.60,233.35 401.60,259.45"/>
    </edge>
    <edge id=":C4_11" function="internal">
        <lane id=":C4_11_0" index="0" speed="13.89" length="3.39" shape="401.60,233.35 400.88,236.66"/>
    </edge>
    <edge id=":C4_17" function="internal">
        <lane id=":C4_17_0" index="0" speed="13.89" length="22.87" shape="400.88,236.66 400.71,237.44 398.04,242.39 393.60,248.21 387.38,254.89"/>
    </edge>
    <edge id=":C4_12" function="internal">
        <lane id=":C4_12_0" index="0" speed="13.89" length="21.30" shape="382.85,250.36 388.25,244.67 392.11,239.93 394.43,236.16 395.20,233.35"/>
    </edge>
    <edge id=":C4_13" function="internal">
        <lane id=":C4_13_0" index="0" speed="12.99" length="39.11" shape="382.85,250.36 391.43,243.93 400.00,241.79 408.57,243.93 417.15,250.36"/>
        <lane id=":C4_13_1" index="1" speed="12.13" length="33.95" shape="385.11,252.62 392.56,247.04 400.00,245.18 407.44,247.04 414.89,252.62"/>
    </edge>
    <edge id=":C4_15" function="internal">
        <lane id=":C4_15_0" index="0" speed="8.14" length="23.57" shape="385.11,252.62 390.65,249.34 395.99,249.69 400.01,253.22 401.60,259.45"/>
    </edge>
    <edge id=":D1_0" function="internal">
        <lane id=":D1_0_0" index="0" speed="13.89" length="21.30" shape="646.65,404.80 643.84,405.57 640.07,407.89 635.33,411.75 629.64,417.15"/>
    </edge>
    <edge id=":D1_1" function="internal">
        <lane id=":D1_1_0" index="0" speed="13.89" length="26.10" shape="646.65,404.80 620.55,404.80"/>
        <lane id=":D1_1_1" index="1" speed="13.89" length="26.10" shape="646.65,401.60 620.55,401.60"/>
    </edge>
    <edge id=":D1_3" function="internal">
        <lane id=":D1_3_0" index="0" speed="13.89" length="3.39" shape="646.65,401.60 643.34,400.88"/>
    </edge>
    <edge id=":D1_16" function="internal">
        <lane id=":D1_16_0" index="0" speed="13.89" length="22.87" shape="643.34,400.88 642.56,400.71 637.61,398.04 631.79,393.60 625.11,387.38"/>
    </edge>
    <edge id=":D1_4" function="internal">
        <lane id=":D1_4_0" index="0" speed="13.89" length="21.30" shape="629.64,382.85 635.33,388.25 640.07,392.11 643.84,394.43 646.65,395.20"/>
    </edge>
    <edge id=":D1_5" function="internal">