<?xml version="1.0"?>
<routes>
    <vType id="car" length="4.5" width="1.8" maxSpeed="16.67" accel="3.0" decel="6.0" sigma="0.8" minGap="0.5" tau="0.5"/>
    <vehicle id="ego" type="car" depart="0" departSpeed="12"><route edges="B1A1 A1B2"/></vehicle>
    <vehicle id="coop" type="car" depart="0" departSpeed="9"><route edges="B1A1 A1B4"/></vehicle>
    <vehicle id="veh0" type="car" depart="1.4" departSpeed="13.7"><route edges="B3A1 A1B1"/></vehicle>
    <vehicle id="veh1" type="car" depart="1.6" departSpeed="9.4"><route edges="B2A1 A1B4"/></vehicle>
    <vehicle id="veh2" type="car" depart="0.4" departSpeed="12.3"><route edges="B4A1 A1B3"/></vehicle>
    <vehicle id="veh3" type="car" depart="0.4" departSpeed="12.1"><route edges="B2A1 A1B4"/></vehicle>
    <vehicle id="veh4" type="car" depart="1.9" departSpeed="10.1"><route edges="B4A1 A1B3"/></vehicle>
    <vehicle id="veh5" type="car" depart="1.1" departSpeed="10.4"><route edges="B1A1 A1B4"/></vehicle>
    <vehicle id="veh6" type="car" depart="0.3" departSpeed="9.2"><route edges="B4A1 A1B2"/></vehicle>
    <vehicle id="veh7" type="car" depart="2.2" departSpeed="10.1"><route edges="B4A1 A1B1"/></vehicle>
</routes>