<?xml version="1.0" encoding="UTF-8"?>

<!-- generated on 2026-05-11T09:54:00.818945+00:00 by Eclipse SUMO netgenerate 1.26.0
<netgenerateConfiguration xmlns:xsi="http://www.w3.org/2001/XMLSchema-instance" xsi:noNamespaceSchemaLocation="http://sumo.dlr.de/xsd/netgenerateConfiguration.xsd">

    <spider_network>
        <spider value="true"/>
        <spider.arm-number value="4"/>
        <spider.space-radius value="80"/>
    </spider_network>

    <output>
        <output-file value="/raid/xuyifan/jiqiuyu/experiments/sumo_scenarios/networks/cross_1lane.net.xml"/>
    </output>

    <building_defaults>
        <default.lanenumber value="1"/>
        <default.speed value="13.89"/>
    </building_defaults>

    <junctions>
        <no-turnarounds value="true"/>
    </junctions>

</netgenerateConfiguration>
-->

<net version="1.20" junctionCornerDetail="5" limitTurnSpeed="5.50" xmlns:xsi="http://www.w3.org/2001/XMLSchema-instance" xsi:noNamespaceSchemaLocation="http://sumo.dlr.de/xsd/net_file.xsd">

    <location netOffset="400.00,400.00" convBoundary="0.00,0.00,800.00,800.00" origBoundary="-400.00,-400.00,400.00,400.00" projParameter="!"/>

    <edge id=":A1_0" function="internal">
        <lane id=":A1_0_0" index="0" speed="6.51" length="9.03" shape="398.40,407.20 398.05,404.75 397.00,403.00 395.25,401.95 392.80,401.60"/>
    </edge>
    <edge id=":A1_1" function="internal">
        <lane id=":A1_1_0" index="0" speed="13.89" length="14.40" shape="398.40,407.20 398.40,392.80"/>
    </edge>
    <edge id=":A1_2" function="internal">
        <lane id=":A1_2_0" index="0" speed="7.80" length="13.44" shape="398.40,407.20 399.19,404.07 401.24,401.24 404.07,399.19 407.20,398.40"/>
    </edge>
    <edge id=":A1_3" function="internal">
        <lane id=":A1_3_0" index="0" speed="6.51" length="9.03" shape="407.20,401.60 404.75,401.95 403.00,403.00 401.95,404.75 401.60,407.20"/>
    </edge>
    <edge id=":A1_4" function="internal">
        <lane id=":A1_4_0" index="0" speed="13.89" length="14.40" shape="407.20,401.60 392.80,401.60"/>
    </edge>
    <edge id=":A1_5" function="internal">
        <lane id=":A1_5_0" index="0" speed="7.80" length="13.44" shape="407.20,401.60 404.07,400.81 401.24,398.76 399.19,395.93 398.40,392.80"/>
    </edge>
    <edge id=":A1_6" function="internal">
        <lane id=":A1_6_0" index="0" speed="6.51" length="9.03" shape="401.60,392.80 401.95,395.25 403.00,397.00 404.75,398.05 407.20,398.40"/>
    </edge>
    <edge id=":A1_7" function="internal">
        <lane id=":A1_7_0" index="0" speed="13.89" length="14.40" shape="401.60,392.80 401.60,407.20"/>
    </edge>
    <edge id=":A1_8" function="internal">
        <lane id=":A1_8_0" index="0" speed="7.80" length="13.44" shape="401.60,392.80 400.81,395.93 398.76,398.76 395.93,400.81 392.80,401.60"/>
    </edge>
    <edge id=":A1_9" function="internal">
        <lane id=":A1_9_0" index="0" speed="6.51" length="9.03" shape="392.80,398.40 395.25,398.05 397.00,397.00 398.05,395.25 398.40,392.80"/>
    </edge>
    <edge id=":A1_10" function="internal">
        <lane id=":A1_10_0" index="0" speed="13.89" length="14.40" shape="392.80,398.40 407.20,398.40"/>
    </edge>
    <edge id=":A1_11" function="internal">
        <lane id=":A1_11_0" index="0" speed="7.80" length="13.44" shape="392.80,398.40 395.93,399.19 398.76,401.24 400.81,404.07 401.60,407.20"/>
    </edge>
    <edge id=":B1_0" function="internal">
        <lane id=":B1_0_0" index="0" speed="12.73" length="15.02" shape="485.33,401.60 482.80,402.09 479.87,403.56 476.55,406.00 472.84,409.42"/>
    </edge>
    <edge id=":B1_1" function="internal">
        <lane id=":B1_1_0" index="0" speed="13.89" length="17.05" shape="485.33,401.60 468.27,401.60"/>
    </edge>
    <edge id=":B1_2" function="internal">
        <lane id=":B1_2_0" index="0" speed="13.73" length="3.53" shape="485.33,401.60 482.16,401.05 481.87,400.92"/>
    </edge>
    <edge id=":B1_12" function="internal">
        <lane id=":B1_12_0" index="0" speed="13.73" length="13.98" shape="481.87,400.92 478.64,399.41 474.78,396.67 470.58,392.84"/>
    </edge>
    <edge id=":B1_3" function="internal">
        <lane id=":B1_3_0" index="0" speed="12.73" length="15.02" shape="472.84,390.58 476.55,394.00 479.87,396.44 482.80,397.91 485.33,398.40"/>
    </edge>
    <edge id=":B1_4" function="internal">
        <lane id=":B1_4_0" index="0" speed="9.73" length="21.49" shape="472.84,390.58 476.37,395.29 477.55,400.00 476.37,404.71 472.84,409.42"/>
    </edge>
    <edge id=":B1_5" function="internal">
        <lane id=":B1_5_0" index="0" speed="7.42" length="19.31" shape="472.84,390.58 476.69,395.40 477.21,398.84 474.41,400.91 468.27,401.60"/>
    </edge>
    <edge id=":B1_6" function="internal">
        <lane id=":B1_6_0" index="0" speed="5.47" length="9.74" shape="468.27,398.40 471.37,398.05 472.78,397.01 472.52,395.27 470.58,392.84"/>
    </edge>
    <edge id=":B1_7" function="internal">
        <lane id=":B1_7_0" index="0" speed="13.89" length="17.05" shape="468.27,398.40 485.33,398.40"/>
    </edge>
    <edge id=":B1_8" function="internal">
        <lane id=":B1_8_0" index="0" speed="7.42" length="6.00" shape="468.27,398.40 474.24,399.07"/>
    </edge>
    <edge id=":B1_13" function="internal">
        <lane id=":B1_13_0" index="0" speed="7.42" length="13.30" shape="474.24,399.07 474.41,399.09 477.21,401.16 476.69,404.60 472.84,409.42"/>
    </edge>
    <edge id=":B1_9" function="internal">
        <lane id=":B1_9_0" index="0" speed="5.47" length="9.74" shape="470.58,407.16 472.52,404.73 472.78,402.99 471.37,401.95 468.27,401.60"/>
    </edge>
    <edge id=":B1_10" function="internal">
        <lane id=":B1_10_0" index="0" speed="8.54" length="16.33" shape="470.58,407.16 473.26,403.58 474.16,400.00 473.26,396.42 470.58,392.84"/>
    </edge>
    <edge id=":B1_11" function="internal">
        <lane id=":B1_11_0" index="0" speed="13.73" length="17.52" shape="470.58,407.16 474.78,403.33 478.64,400.59 482.16,398.95 485.33,398.40"/>
    </edge>
    <edge id=":B2_0" function="internal">
        <lane id=":B2_0_0" index="0" speed="12.73" length="15.02" shape="398.40,485.33 397.91,482.80 396.44,479.87 394.00,476.55 390.58,472.84"/>
    </edge>
    <edge id=":B2_1" function="internal">
        <lane id=":B2_1_0" index="0" speed="13.89" length="17.05" shape="398.40,485.33 398.40,468.27"/>
    </edge>
    <edge id=":B2_2" function="internal">
        <lane id=":B2_2_0" index="0" speed="13.73" length="3.53" shape="398.40,485.33 398.95,482.16 399.08,481.87"/>
    </edge>
    <edge id=":B2_12" function="internal">
        <lane id=":B2_12_0" index="0" speed="13.73" length="13.98" shape="399.08,481.87 400.59,478.64 403.33,474.78 407.16,470.58"/>
    </edge>
    <edge id=":B2_3" function="internal">
        <lane id=":B2_3_0" index="0" speed="12.73" length="15.02" shape="409.42,472.84 406.00,476.55 403.56,479.87 402.09,482.80 401.60,485.33"/>
    </edge>
    <edge id=":B2_4" function="internal">
        <lane id=":B2_4_0" index="0" speed="9.73" length="21.49" shape="409.42,472.84 404.71,476.37 400.00,477.55 395.29,476.37 390.58,472.84"/>
    </edge>
    <edge id=":B2_5" function="internal">
        <lane id=":B2_5_0" index="0" speed="7.42" length="19.31" shape="409.42,472.84 404.60,476.69 401.16,477.21 399.09,474.41 398.40,468.27"/>
    </edge>
    <edge id=":B2_6" function="internal">
        <lane id=":B2_6_0" index="0" speed="5.47" length="9.74" shape="401.60,468.27 401.95,471.37 402.99,472.78 404.73,472.52 407.16,470.58"/>
    </edge>
    <edge id=":B2_7" function="internal">
        <lane id=":B2_7_0" index="0" speed="13.89" length="17.05" shape="401.60,468.27 401.60,485.33"/>
    </edge>
    <edge id=":B2_8" function="internal">
        <lane id=":B2_8_0" index="0" speed="7.42" length="6.00" shape="401.60,468.27 400.93,474.24"/>
    </edge>
    <edge id=":B2_13" function="internal">
        <lane id=":B2_13_0" index="0" speed="7.42" length="13.30" shape="400.93,474.24 400.91,474.41 398.84,477.21 395.40,476.69 390.58,472.84"/>
    </edge>
    <edge id=":B2_9" function="internal">
        <lane id=":B2_9_0" index="0" speed="5.47" length="9.74" shape="392.84,470.58 395.27,472.52 397.01,472.78 398.05,471.37 398.40,468.27"/>
    </edge>
    <edge id=":B2_10" function="internal">
        <lane id=":B2_10_0" index="0" speed="8.54" length="16.33" shape="392.84,470.58 396.42,473.26 400.00,474.16 403.58,473.26 407.16,470.58"/>
    </edge>
    <edge id=":B2_11" function="internal">
        <lane id=":B2_11_0" index="0" speed="13.73" length="17.52" shape="392.84,470.58 396.67,474.78 399.41,478.64 401.05,482.16 401.60,485.33"/>
    </edge>
    <edge id=":B3_0" function="internal">
        <lane id=":B3_0_0" index="0" speed="12.73" length="15.02" shape="327.16,409.42 323.45,406.00 320.13,403.56 317.20,402.09 314.67,401.60"/>
    </edge>
    <edge id=":B3_1" function="internal">
        <lane id=":B3_1_0" index="0" speed="9.73" length="21.49" shape="327.16,409.42 323.63,404.71 322.45,400.00 323.63,395.29 327.16,390.58"/>
    </edge>
    <edge id=":B3_2" function="internal">
        <lane id=":B3_2_0" index="0" speed="7.42" length="19.31" shape="327.16,409.42 323.31,404.60 322.79,401.16 325.59,399.09 331.73,398.40"/>
    </edge>
    <edge id=":B3_3" function="internal">
        <lane id=":B3_3_0" index="0" speed="5.47" length="9.74" shape="331.73,401.60 328.63,401.95 327.22,402.99 327.48,404.73 329.42,407.16"/>
    </edge>
    <edge id=":B3_4" function="internal">
        <lane id=":B3_4_0" index="0" speed="13.89" length="17.05" shape="331.73,401.60 314.67,401.60"/>
    </edge>
    <edge id=":B3_5" function="internal">
        <lane id=":B3_5_0" index="0" speed="7.42" length="6.00" shape="331.73,401.60 325.76,400.93"/>
    </edge>
    <edge id=":B3_12" function="internal">
        <lane id=":B3_12_0" index="0" speed="7.42" length="13.30" shape="325.76,400.93 325.59,400.91 322.79,398.84 323.31,395.40 327.16,390.58"/>
    </edge>
    <edge id=":B3_6" function="internal">
        <lane id=":B3_6_0" index="0" speed="5.47" length="9.74" shape="329.42,392.84 327.48,395.27 327.22,397.01 328.63,398.05 331.73,398.40"/>
    </edge>
    <edge id=":B3_7" function="internal">
        <lane id=":B3_7_0" index="0" speed="8.54" length="16.33" shape="329.42,392.84 326.74,396.42 325.84,400.00 326.74,403.58 329.42,407.16"/>
    </edge>
    <edge id=":B3_8" function="internal">
        <lane id=":B3_8_0" index="0" speed="13.73" length="17.52" shape="329.42,392.84 325.22,396.67 321.36,399.41 317.84,401.05 314.67,401.60"/>
    </edge>
    <edge id=":B3_9" function="internal">
        <lane id=":B3_9_0" index="0" speed="12.73" length="15.02" shape="314.67,398.40 317.20,397.91 320.13,396.44 323.45,394.00 327.16,390.58"/>
    </edge>
    <edge id=":B3_10" function="internal">
        <lane id=":B3_10_0" index="0" speed="13.89" length="17.05" shape="314.67,398.40 331.73,398.40"/>
    </edge>
    <edge id=":B3_11" function="internal">
        <lane id=":B3_11_0" index="0" speed="13.73" length="3.53" shape="314.67,398.40 317.84,398.95 318.13,399.08"/>
    </edge>
    <edge id=":B3_13" function="internal">
        <lane id=":B3_13_0" index="0" speed="13.73" length="13.98" shape="318.13,399.08 321.36,400.59 325.22,403.33 329.42,407.16"/>
    </edge>
    <edge id=":B4_0" function="internal">
        <lane id=":B4_0_0" index="0" speed="5.47" length="9.74" shape="398.40,331.73 398.05,328.63 397.01,327.22 395.27,327.48 392.84,329.42"/>
    </edge>
    <edge id=":B4_1" function="internal">
        <lane id=":B4_1_0" index="0" speed="13.89" length="17.05" shape="398.40,331.73 398.40,314.67"/>
    </edge>
    <edge id=":B4_2" function="internal">
        <lane id=":B4_2_0" index="0" speed="7.42" length="6.00" shape="398.40,331.73 399.07,325.76"/>
    </edge>
    <edge id=":B4_12" function="internal">
        <lane id=":B4_12_0" index="0" speed="7.42" length="13.30" shape="399.07,325.76 399.09,325.59 401.16,322.79 404.60,323.31 409.42,327.16"/>
    </edge>
    <edge id=":B4_3" function="internal">
        <lane id=":B4_3_0" index="0" speed="5.47" length="9.74" shape="407.16,329.42 404.73,327.48 402.99,327.22 401.95,328.63 401.60,331.73"/>
    </edge>
    <edge id=":B4_4" function="internal">
        <lane id=":B4_4_0" index="0" speed="8.54" length="16.33" shape="407.16,329.42 403.58,326.74 400.00,325.84 396.42,326.74 392.84,329.42"/>
    </edge>
    <edge id=":B4_5" function="internal">
        <lane id=":B4_5_0" index="0" speed="13.73" length="17.52" shape="407.16,329.42 403.33,325.22 400.59,321.36 398.95,317.84 398.40,314.67"/>
    </edge>
    <edge id=":B4_6" function="internal">
        <lane id=":B4_6_0" index="0" speed="12.73" length="15.02" shape="401.60,314.67 402.09,317.20 403.56,320.13 406.00,323.45 409.42,327.16"/>
    </edge>
    <edge id=":B4_7" function="internal">
        <lane id=":B4_7_0" index="0" speed="13.89" length="17.05" shape="401.60,314.67 401.60,331.73"/>
    </edge>
    <edge id=":B4_8" function="internal">
        <lane id=":B4_8_0" index="0" speed="13.73" length="3.53" shape="401.60,314.67 401.05,317.84 400.92,318.13"/>
    </edge>
    <edge id=":B4_13" function="internal">
        <lane id=":B4_13_0" index="0" speed="13.73" length="13.98" shape="400.92,318.13 399.41,321.36 396.67,325.22 392.84,329.42"/>
    </edge>
    <edge id=":B4_9" function="internal">
        <lane id=":B4_9_0" index="0" speed="12.73" length="15.02" shape="390.58,327.16 394.00,323.45 396.44,320.13 397.91,317.20 398.40,314.67"/>
    </edge>
    <edge id=":B4_10" function="internal">
        <lane id=":B4_10_0" index="0" speed="9.73" length="21.49" shape="390.58,327.16 395.29,323.63 400.00,322.45 404.71,323.63 409.42,327.16"/>
    </edge>
    <edge id=":B4_11" function="internal">
        <lane id=":B4_11_0" index="0" speed="7.42" length="19.31" shape="390.58,327.16 395.40,323.31 398.84,322.79 400.91,325.59 401.60,331.73"/>
    </edge>
    <edge id=":C1_0" function="internal">
        <lane id=":C1_0_0" index="0" speed="12.73" length="15.02" shape="565.33,401.60 562.80,402.09 559.87,403.56 556.55,406.00 552.84,409.42"/>
    </edge>
    <edge id=":C1_1" function="internal">
        <lane id=":C1_1_0" index="0" speed="13.89" length="17.05" shape="565.33,401.60 548.27,401.60"/>
    </edge>
    <edge id=":C1_2" function="internal">
        <lane id=":C1_2_0" index="0" speed="13.73" length="3.53" shape="565.33,401.60 562.16,401.05 561.87,400.92"/>
    </edge>
    <edge id=":C1_12" function="internal">
        <lane id=":C1_12_0" index="0" speed="13.73" length="13.98" shape="561.87,400.92 558.64,399.41 554.78,396.67 550.58,392.84"/>
    </edge>
    <edge id=":C1_3" function="internal">
        <lane id=":C1_3_0" index="0" speed="12.73" length="15.02" shape="552.84,390.58 556.55,394.00 559.87,396.44 562.80,397.91 565.33,398.40"/>
    </edge>
    <edge id=":C1_4" function="internal">
        <lane id=":C1_4_0" index="0" speed="9.73" length="21.49" shape="552.84,390.58 556.37,395.29 557.55,400.00 556.37,404.71 552.84,409.42"/>
    </edge>
    <edge id=":C1_5" function="internal">
        <lane id=":C1_5_0" index="0" speed="7.42" length="19.31" shape="552.84,390.58 556.69,395.40 557.21,398.84 554.41,400.91 548.27,401.60"/>
    </edge>
    <edge id=":C1_6" function="internal">
        <lane id=":C1_6_0" index="0" speed="5.47" length="9.74" shape="548.27,398.40 551.37,398.05 552.78,397.01 552.52,395.27 550.58,392.84"/>
    </edge>
    <edge id=":C1_7" function="internal">
        <lane id=":C1_7_0" index="0" speed="13.89" length="17.05" shape="548.27,398.40 565.33,398.40"/>
    </edge>
    <edge id=":C1_8" function="internal">
        <lane id=":C1_8_0" index="0" speed="7.42" length="6.00" shape="548.27,398.40 554.24,399.07"/>
    </edge>
    <edge id=":C1_13" function="internal">
        <lane id=":C1_13_0" index="0" speed="7.42" length="13.30" shape="554.24,399.07 554.41,399.09 557.21,401.16 556.69,404.60 552.84,409.42"/>
    </edge>
    <edge id=":C1_9" function="internal">
        <lane id=":C1_9_0" index="0" speed="5.47" length="9.74" shape="550.58,407.16 552.52,404.73 552.78,402.99 551.37,401.95 548.27,401.60"/>
    </edge>
    <edge id=":C1_10" function="internal">
        <lane id=":C1_10_0" index="0" speed="8.54" length="16.33" shape="550.58,407.16 553.26,403.58 554.16,400.00 553.26,396.42 550.58,392.84"/>
    </edge>
    <edge id=":C1_11" function="internal">
        <lane id=":C1_11_0" index="0" speed="13.71" length="17.48" shape="550.58,407.16 553.67,404.30 557.40,401.45 561.41,399.27 565.33,398.40"/>
    </edge>
    <edge id=":C2_0" function="internal">
        <lane id=":C2_0_0" index="0" speed="12.73" length="15.02" shape="398.40,565.33 397.91,562.80 396.44,559.87 394.00,556.55 390.58,552.84"/>
    </edge>
    <edge id=":C2_1" function="internal">
        <lane id=":C2_1_0" index="0" speed="13.89" length="17.05" shape="398.40,565.33 398.40,548.27"/>
    </edge>
    <edge id=":C2_2" function="internal">
        <lane id=":C2_2_0" index="0" speed="13.73" length="3.53" shape="398.40,565.33 398.95,562.16 399.08,561.87"/>
    </edge>
    <edge id=":C2_12" function="internal">
        <lane id=":C2_12_0" index="0" speed="13.73" length="13.98" shape="399.08,561.87 400.59,558.64 403.33,554.78 407.16,550.58"/>
    </edge>
    <edge id=":C2_3" function="internal">
        <lane id=":C2_3_0" index="0" speed="12.73" length="15.02" shape="409.42,552.84 406.00,556.55 403.56,559.87 402.09,562.80 401.60,565.33"/>
    </edge>
    <edge id=":C2_4" function="internal">
        <lane id=":C2_4_0" index="0" speed="9.73" length="21.49" shape="409.42,552.84 404.71,556.37 400.00,557.55 395.29,556.37 390.58,552.84"/>
    </edge>
    <edge id=":C2_5" function="internal">
        <lane id=":C2_5_0" index="0" speed="7.42" length="19.31" shape="409.42,552.84 404.60,556.69 401.16,557.21 399.09,554.41 398.40,548.27"/>
    </edge>
    <edge id=":C2_6" function="internal">
        <lane id=":C2_6_0" index="0" speed="5.47" length="9.74" shape="401.60,548.27 401.95,551.37 402.99,552.78 404.73,552.52 407.16,550.58"/>
    </edge>
    <edge id=":C2_7" function="internal">
        <lane id=":C2_7_0" index="0" speed="13.89" length="17.05" shape="401.60,548.27 401.60,565.33"/>
    </edge>
    <edge id=":C2_8" function="internal">
        <lane id=":C2_8_0" index="0" speed="7.42" length="6.00" shape="401.60,548.27 400.93,554.24"/>
    </edge>
    <edge id=":C2_13" function="internal">
        <lane id=":C2_13_0" index="0" speed="7.42" length="13.30" shape="400.93,554.24 400.91,554.41 398.84,557.21 395.40,556.69 390.58,552.84"/>
    </edge>
    <edge id=":C2_9" function="internal">
        <lane id=":C2_9_0" index="0" speed="5.47" length="9.74" shape="392.84,550.58 395.27,552.52 397.01,552.78 398.05,551.37 398.40,548.27"/>
    </edge>
    <edge id=":C2_10" function="internal">
        <lane id=":C2_10_0" index="0" speed="8.54" length="16.33" shape="392.84,550.58 396.42,553.26 400.00,554.16 403.58,553.26 407.16,550.58"/>
    </edge>
    <edge id=":C2_11" function="internal">
        <lane id=":C2_11_0" index="0" speed="13.73" length="17.52" shape="392.84,550.58 396.67,554.78 399.41,558.64 401.05,562.16 401.60,565.33"/>
    </edge>
    <edge id=":C3_0" function="internal">
        <lane id=":C3_0_0" index="0" speed="12.73" length="15.02" shape="247.16,409.42 243.45,406.00 240.13,403.56 237.20,402.09 234.67,401.60"/>
    </edge>
    <edge id=":C3_1" function="internal">
        <lane id=":C3_1_0" index="0" speed="9.73" length="21.49" shape="247.16,409.42 243.63,404.71 242.45,400.00 243.63,395.29 247.16,390.58"/>
    </edge>
    <edge id=":C3_2" function="internal">
        <lane id=":C3_2_0" index="0" speed="7.42" length="19.31" shape="247.16,409.42 243.31,404.60 242.79,401.16 245.59,399.09 251.73,398.40"/>
    </edge>
    <edge id=":C3_3" function="internal">
        <lane id=":C3_3_0" index="0" speed="5.47" length="9.74" shape="251.73,401.60 248.63,401.95 247.22,402.99 247.48,404.73 249.42,407.16"/>
    </edge>
    <edge id=":C3_4" function="internal">
        <lane id=":C3_4_0" index="0" speed="13.89" length="17.05" shape="251.73,401.60 234.67,401.60"/>
    </edge>
    <edge id=":C3_5" function="internal">
        <lane id=":C3_5_0" index="0" speed="7.42" length="6.00" shape="251.73,401.60 245.76,400.93"/>
    </edge>
    <edge id=":C3_12" function="internal">
        <lane id=":C3_12_0" index="0" speed="7.42" length="13.30" shape="245.76,400.93 245.59,400.91 242.79,398.84 243.31,395.40 247.16,390.58"/>
    </edge>
    <edge id=":C3_6" function="internal">
        <lane id=":C3_6_0" index="0" speed="5.47" length="9.74" shape="249.42,392.84 247.48,395.27 247.22,397.01 248.63,398.05 251.73,398.40"/>
    </edge>
    <edge id=":C3_7" function="internal">
        <lane id=":C3_7_0" index="0" speed="8.54" length="16.33" shape="249.42,392.84 246.74,396.42 245.84,400.00 246.74,403.58 249.42,407.16"/>
    </edge>
    <edge id=":C3_8" function="internal">
        <lane id=":C3_8_0" index="0" speed="13.73" length="17.52" shape="249.42,392.84 245.22,396.67 241.36,399.41 237.84,401.05 234.67,401.60"/>
    </edge>
    <edge id=":C3_9" function="internal">
        <lane id=":C3_9_0" index="0" speed="12.73" length="15.02" shape="234.67,398.40 237.20,397.91 240.13,396.44 243.45,394.00 247.16,390.58"/>
    </edge>
    <edge id=":C3_10" function="internal">
        <lane id=":C3_10_0" index="0" speed="13.89" length="17.05" shape="234.67,398.40 251.73,398.40"/>
    </edge>
    <edge id=":C3_11" function="internal">
        <lane id=":C3_11_0" index="0" speed="13.73" length="3.53" shape="234.67,398.40 237.84,398.95 238.13,399.08"/>
    </edge>
    <edge id=":C3_13" function="internal">
        <lane id=":C3_13_0" index="0" speed="13.73" length="13.98" shape="238.13,399.08 241.36,400.59 245.22,403.33 249.42,407.16"/>
    </edge>
    <edge id=":C4_0" function="internal">
        <lane id=":C4_0_0" index="0" speed="5.47" length="9.74" shape="398.40,251.73 398.05,248.63 397.01,247.22 395.27,247.48 392.84,249.42"/>
    </edge>
    <edge id=":C4_1" function="internal">
        <lane id=":C4_1_0" index="0" speed="13.89" length="17.05" shape="398.40,251.73 398.40,234.67"/>
    </edge>
    <edge id=":C4_2" function="internal">
        <lane id=":C4_2_0" index="0" speed="7.42" length="6.00" shape="398.40,251.73 399.07,245.76"/>
    </edge>
    <edge id=":C4_12" function="internal">
        <lane id=":C4_12_0" index="0" speed="7.42" length="13.30" shape="399.07,245.76 399.09,245.59 401.16,242.79 404.60,243.31 409.42,247.16"/>
    </edge>
    <edge id=":C4_3" function="internal">
        <lane id=":C4_3_0" index="0" speed="5.47" length="9.74" shape="407.16,249.42 404.73,247.48 402.99,247.22 401.95,248.63 401.60,251.73"/>
    </edge>
    <edge id=":C4_4" function="internal">
        <lane id=":C4_4_0" index="0" speed="8.54" length="16.33" shape="407.16,249.42 403.58,246.74 400.00,245.84 396.42,246.74 392.84,249.42"/>
    </edge>
    <edge id=":C4_5" function="internal">
        <lane id=":C4_5_0" index="0" speed="13.73" length="17.52" shape="407.16,249.42 403.33,245.22 400.59,241.36 398.95,237.84 398.40,234.67"/>
    </edge>
    <edge id=":C4_6" function="internal">
        <lane id=":C4_6_0" index="0" speed="12.73" length="15.02" shape="401.60,234.67 402.09,237.20 403.56,240.13 406.00,243.45 409.42,247.16"/>
    </edge>
    <edge id=":C4_7" function="internal">
        <lane id=":C4_7_0" index="0" speed="13.89" length="17.05" shape="401.60,234.67 401.60,251.73"/>
    </edge>
    <edge id=":C4_8" function="internal">
        <lane id=":C4_8_0" index="0" speed="13.73" length="3.53" shape="401.60,234.67 401.05,237.84 400.92,238.13"/>
    </edge>
    <edge id=":C4_13" function="internal">
        <lane id=":C4_13_0" index="0" speed="13.73" length="13.98" shape="400.92,238.13 399.41,241.36 396.67,245.22 392.84,249.42"/>
    </edge>
    <edge id=":C4_9" function="internal">
        <lane id=":C4_9_0" index="0" speed="12.73" length="15.02" shape="390.58,247.16 394.00,243.45 396.44,240.13 397.91,237.20 398.40,234.67"/>
    </edge>
    <edge id=":C4_10" function="internal">
        <lane id=":C4_10_0" index="0" speed="9.73" length="21.49" shape="390.58,247.16 395.29,243.63 400.00,242.45 404.71,243.63 409.42,247.16"/>
    </edge>
    <edge id=":C4_11" function="internal">
        <lane id=":C4_11_0" index="0" speed="7.42" length="19.31" shape="390.58,247.16 395.40,243.31 398.84,242.79 400.91,245.59 401.60,251.73"/>
    </edge>
    <edge id=":D1_0" function="internal">
        <lane id=":D1_0_0" index="0" speed="12.73" length="15.02" shape="645.33,401.60 642.80,402.09 639.87,403.56 636.55,406.00 632.84,409.42"/>
    </edge>
    <edge id=":D1_1" function="internal">
        <lane id=":D1_1_0" index="0" speed="13.89" length="17.05" shape="645.33,401.60 628.27,401.60"/>
    </edge>
    <edge id=":D1_2" function="internal">
        <lane id=":D1_2_0" index="0" speed="13.73" length="3.53" shape="645.33,401.60 642.16,401.05 641.87,400.92"/>
    </edge>
    <edge id=":D1_12" function="internal">
        <lane id=":D1_12_0" index="0" speed="13.73" length="13.98" shape="641.87,400.92 638.64,399.41 634.78,396.67 630.58,392.84"/>
    </edge>
    <edge id=":D1_3" function="internal">
        <lane id=":D1_3_0" index="0" speed="12.73" length="15.02" shape="632.84,390.58 636.55,394.00 639.87,396.44 642.80,397.91 645.33,398.40"/>
    </edge>
    <edge id=":D1_4" function="internal">
        <lane id=":D1_4_0" index="0" speed="9.73" length="21.49" shape="632.84,390.58 636.37,395.29 637.55,400.00 636.37,404.71 632.84,409.42"/>
    </edge>
    <edge id=":D1_5" function="internal">
        <lane id=":D1_5_0" index="0" speed="7.42" length="19.31" shape="632.84,390.58 636.69,395.40 637.21,398.84 634.41,400.91 628.27,401.60"/>
    </edge>
    <edge id=":D1_6" function="internal">
        <lane id=":D1_6_0" index="0" speed="5.47" length="9.74" shape="628.27,398.40 631.37,398.05 632.78,397.01 632.52,395.27 630.58,392.84"/>
    </edge>
    <edge id=":D1_7" function="internal">
        <lane id=":D1_7_0" index="0" speed="13.89" length="17.05" shape="628.27,398.40 645.33,398.40"/>
    </edge>
    <edge id=":D1_8" function="internal">
        <lane id=":D1_8_0" index="0" speed="7.42" length="6.00" shape="628.27,398.40 634.24,399.07"/>
    </edge>
    <edge id=":D1_13" function="internal">
        <lane id=":D1_13_0" index="0" speed="7.42" length="13.30" shape="634.24,399.07 634.41,399.09 637.21,401.16 636.69,404.60 632.84,409.42"/>
    </edge>
    <edge id=":D1_9" function="internal">
        <lane id=":D1_9_0" index="0" speed="5.47" length="9.74" shape="630.58,407.16 632.52,404.73 632.78,402.99 631.37,401.95 628.27,401.60"/>
    </edge>
    <edge id=":D1_10" function="internal">
        <lane id=":D1_10_0" index="0" speed="8.54" length="16.33" shape="630.58,407.16 633.26,403.58 634.16,400.00 633.26,396.42 630.58,392.84"/>
    </edge>
    <edge id=":D1_11" function="internal">
        <lane id=":D1_11_0" index="0" speed="13.71" length="17.48" shape="630.58,407.16 633.67,404.30 637.40,401.45 641.41,399.27 645.33,398.40"/>
    </edge>
    <edge id=":D2_0" function="internal">
        <lane id=":D2_0_0" index="0" speed="12.73" length="15.02" shape="398.40,645.33 397.91,642.80 396.44,639.87 394.00,636.55 390.58,632.84"/>
    </edge>
    <edge id=":D2_1" function="internal">
        <lane id=":D2_1_0" index="0" speed="13.89" length="17.05" shape="398.40,645.33 398.40,628.27"/>
    </edge>
    <edge id=":D2_2" function="internal">
        <lane id=":D2_2_0" index="0" speed="13.73" length="3.53" shape="398.40,645.33 398.95,642.16 399.08,641.87"/>
    </edge>
    <edge id=":D2_12" function="internal">
        <lane id=":D2_12_0" index="0" speed="13.73" length="13.98" shape="399.08,641.87 400.59,638.64 403.33,634.78 407.16,630.58"/>
    </edge>
    <edge id=":D2_3" function="internal">
        <lane id=":D2_3_0" index="0" speed="12.73" length="15.02" shape="409.42,632.84 406.00,636.55 403.56,639.87 402.09,642.80 401.60,645.33"/>
    </edge>
    <edge id=":D2_4" function="internal">
        <lane id=":D2_4_0" index="0" speed="9.73" length="21.49" shape="409.42,632.84 404.71,636.37 400.00,637.55 395.29,636.37 390.58,632.84"/>
    </edge>
    <edge id=":D2_5" function="internal">
        <lane id=":D2_5_0" index="0" speed="7.42" length="19.31" shape="409.42,632.84 404.60,636.69 401.16,637.21 399.09,634.41 398.40,628.27"/>
    </edge>
    <edge id=":D2_6" function="internal">
        <lane id=":D2_6_0" index="0" speed="5.47" length="9.74" shape="401.60,628.27 401.95,631.37 402.99,632.78 404.73,632.52 407.16,630.58"/>
    </edge>
    <edge id=":D2_7" function="internal">
        <lane id=":D2_7_0" index="0" speed="13.89" length="17.05" shape="401.60,628.27 401.60,645.33"/>
    </edge>
    <edge id=":D2_8" function="internal">
        <lane id=":D2_8_0" index="0" speed="7.42" length="6.00" shape="401.60,628.27 400.93,634.24"/>
    </edge>
    <edge id=":D2_13" function="internal">
        <lane id=":D2_13_0" index="0" speed="7.42" length="13.30" shape="400.93,634.24 400.91,634.41 398.84,637.21 395.40,636.69 390.58,632.84"/>
    </edge>
    <edge id=":D2_9" function="internal">
        <lane id=":D2_9_0" index="0" speed="5.47" length="9.74" shape="392.84,630.58 395.27,632.52 397.01,632.78 398.05,631.37 398.40,628.27"/>
    </edge>
    <edge id=":D2_10" function="internal">
        <lane id=":D2_10_0" index="0" speed="8.54" length="16.33" shape="392.84,630.58 396.42,633.26 400.00,634.16 403.58,633.26 407.16,630.58"/>
    </edge>
    <edge id=":D2_11" function="internal">
        <lane id=":D2_11_0" index="0" speed="13.73" length="17.52" shape="392.84,630.58 396.67,634.78 399.41,638.64 401.05,642.16 401.60,645.33"/>
    </edge>
    <edge id=":D3_0" function="internal">
        <lane id=":D3_0_0" index="0" speed="12.73" length="15.02" shape="167.16,409.42 163.45,406.00 160.13,403.56 157.20,402.09 154.67,401.60"/>
    </edge>
    <edge id=":D3_1" function="internal">