<?xml version="1.0" encoding="UTF-8"?>

<!-- generated on 2026-05-10T16:10:12.092016+00:00 by Eclipse SUMO netgenerate 1.26.0
<netgenerateConfiguration xmlns:xsi="http://www.w3.org/2001/XMLSchema-instance" xsi:noNamespaceSchemaLocation="http://sumo.dlr.de/xsd/netgenerateConfiguration.xsd">

    <spider_network>
        <spider value="true"/>
        <spider.arm-number value="4"/>
        <spider.space-radius value="60"/>
    </spider_network>

    <output>
        <output-file value="/raid/xuyifan/jiqiuyu/experiments/sumo_scenarios/networks/crossroads_1lane.net.xml"/>
    </output>

    <building_defaults>
        <default.lanenumber value="1"/>
        <default.speed value="13.89"/>
    </building_defaults>

    <junctions>
        <no-turnarounds value="true"/>
    </junctions>

</netgenerateConfiguration>
-->

<net version="1.20" junctionCornerDetail="5" limitTurnSpeed="5.50" xmlns:xsi="http://www.w3.org/2001/XMLSchema-instance" xsi:noNamespaceSchemaLocation="http://sumo.dlr.de/xsd/net_file.xsd">

    <location netOffset="300.00,300.00" convBoundary="0.00,0.00,600.00,600.00" origBoundary="-300.00,-300.00,300.00,300.00" projParameter="!"/>

    <edge id=":A1_0" function="internal">
        <lane id=":A1_0_0" index="0" speed="6.51" length="9.03" shape="298.40,307.20 298.05,304.75 297.00,303.00 295.25,301.95 292.80,301.60"/>
    </edge>
    <edge id=":A1_1" function="internal">
        <lane id=":A1_1_0" index="0" speed="13.89" length="14.40" shape="298.40,307.20 298.40,292.80"/>
    </edge>
    <edge id=":A1_2" function="internal">
        <lane id=":A1_2_0" index="0" speed="7.80" length="13.44" shape="298.40,307.20 299.19,304.07 301.24,301.24 304.07,299.19 307.20,298.40"/>
    </edge>
    <edge id=":A1_3" function="internal">
        <lane id=":A1_3_0" index="0" speed="6.51" length="9.03" shape="307.20,301.60 304.75,301.95 303.00,303.00 301.95,304.75 301.60,307.20"/>
    </edge>
    <edge id=":A1_4" function="internal">
        <lane id=":A1_4_0" index="0" speed="13.89" length="14.40" shape="307.20,301.60 292.80,301.60"/>
    </edge>
    <edge id=":A1_5" function="internal">
        <lane id=":A1_5_0" index="0" speed="7.80" length="13.44" shape="307.20,301.60 304.07,300.81 301.24,298.76 299.19,295.93 298.40,292.80"/>
    </edge>
    <edge id=":A1_6" function="internal">
        <lane id=":A1_6_0" index="0" speed="6.51" length="9.03" shape="301.60,292.80 301.95,295.25 303.00,297.00 304.75,298.05 307.20,298.40"/>
    </edge>
    <edge id=":A1_7" function="internal">
        <lane id=":A1_7_0" index="0" speed="13.89" length="14.40" shape="301.60,292.80 301.60,307.20"/>
    </edge>
    <edge id=":A1_8" function="internal">
        <lane id=":A1_8_0" index="0" speed="7.80" length="13.44" shape="301.60,292.80 300.81,295.93 298.76,298.76 295.93,300.81 292.80,301.60"/>
    </edge>
    <edge id=":A1_9" function="internal">
        <lane id=":A1_9_0" index="0" speed="6.51" length="9.03" shape="292.80,298.40 295.25,298.05 297.00,297.00 298.05,295.25 298.40,292.80"/>
    </edge>
    <edge id=":A1_10" function="internal">
        <lane id=":A1_10_0" index="0" speed="13.89" length="14.40" shape="292.80,298.40 307.20,298.40"/>
    </edge>
    <edge id=":A1_11" function="internal">
        <lane id=":A1_11_0" index="0" speed="7.80" length="13.44" shape="292.80,298.40 295.93,299.19 298.76,301.24 300.81,304.07 301.60,307.20"/>
    </edge>
    <edge id=":B1_0" function="internal">
        <lane id=":B1_0_0" index="0" speed="12.73" length="15.02" shape="365.33,301.60 362.80,302.09 359.87,303.56 356.55,306.00 352.84,309.42"/>
    </edge>
    <edge id=":B1_1" function="internal">
        <lane id=":B1_1_0" index="0" speed="13.89" length="17.05" shape="365.33,301.60 348.27,301.60"/>
    </edge>
    <edge id=":B1_2" function="internal">
        <lane id=":B1_2_0" index="0" speed="13.73" length="3.53" shape="365.33,301.60 362.16,301.05 361.87,300.92"/>
    </edge>
    <edge id=":B1_12" function="internal">
        <lane id=":B1_12_0" index="0" speed="13.73" length="13.98" shape="361.87,300.92 358.64,299.41 354.78,296.67 350.58,292.84"/>
    </edge>
    <edge id=":B1_3" function="internal">
        <lane id=":B1_3_0" index="0" speed="12.73" length="15.02" shape="352.84,290.58 356.55,294.00 359.87,296.44 362.80,297.91 365.33,298.40"/>
    </edge>
    <edge id=":B1_4" function="internal">
        <lane id=":B1_4_0" index="0" speed="9.73" length="21.49" shape="352.84,290.58 356.37,295.29 357.55,300.00 356.37,304.71 352.84,309.42"/>
    </edge>
    <edge id=":B1_5" function="internal">
        <lane id=":B1_5_0" index="0" speed="7.42" length="19.31" shape="352.84,290.58 356.69,295.40 357.21,298.84 354.41,300.91 348.27,301.60"/>
    </edge>
    <edge id=":B1_6" function="internal">
        <lane id=":B1_6_0" index="0" speed="5.47" length="9.74" shape="348.27,298.40 351.37,298.05 352.78,297.01 352.52,295.27 350.58,292.84"/>
    </edge>
    <edge id=":B1_7" function="internal">
        <lane id=":B1_7_0" index="0" speed="13.89" length="17.05" shape="348.27,298.40 365.33,298.40"/>
    </edge>
    <edge id=":B1_8" function="internal">
        <lane id=":B1_8_0" index="0" speed="7.42" length="6.00" shape="348.27,298.40 354.24,299.07"/>
    </edge>
    <edge id=":B1_13" function="internal">
        <lane id=":B1_13_0" index="0" speed="7.42" length="13.30" shape="354.24,299.07 354.41,299.09 357.21,301.16 356.69,304.60 352.84,309.42"/>
    </edge>
    <edge id=":B1_9" function="internal">
        <lane id=":B1_9_0" index="0" speed="5.47" length="9.74" shape="350.58,307.16 352.52,304.73 352.78,302.99 351.37,301.95 348.27,301.60"/>
    </edge>
    <edge id=":B1_10" function="internal">
        <lane id=":B1_10_0" index="0" speed="8.54" length="16.33" shape="350.58,307.16 353.26,303.58 354.16,300.00 353.26,296.42 350.58,292.84"/>
    </edge>
    <edge id=":B1_11" function="internal">
        <lane id=":B1_11_0" index="0" speed="13.73" length="17.52" shape="350.58,307.16 354.78,303.33 358.64,300.59 362.16,298.95 365.33,298.40"/>
    </edge>
    <edge id=":B2_0" function="internal">
        <lane id=":B2_0_0" index="0" speed="12.73" length="15.02" shape="298.40,365.33 297.91,362.80 296.44,359.87 294.00,356.55 290.58,352.84"/>
    </edge>
    <edge id=":B2_1" function="internal">
        <lane id=":B2_1_0" index="0" speed="13.89" length="17.05" shape="298.40,365.33 298.40,348.27"/>
    </edge>
    <edge id=":B2_2" function="internal">
        <lane id=":B2_2_0" index="0" speed="13.73" length="3.53" shape="298.40,365.33 298.95,362.16 299.08,361.87"/>
    </edge>
    <edge id=":B2_12" function="internal">
        <lane id=":B2_12_0" index="0" speed="13.73" length="13.98" shape="299.08,361.87 300.59,358.64 303.33,354.78 307.16,350.58"/>
    </edge>
    <edge id=":B2_3" function="internal">
        <lane id=":B2_3_0" index="0" speed="12.73" length="15.02" shape="309.42,352.84 306.00,356.55 303.56,359.87 302.09,362.80 301.60,365.33"/>
    </edge>
    <edge id=":B2_4" function="internal">
        <lane id=":B2_4_0" index="0" speed="9.73" length="21.49" shape="309.42,352.84 304.71,356.37 300.00,357.55 295.29,356.37 290.58,352.84"/>
    </edge>
    <edge id=":B2_5" function="internal">
        <lane id=":B2_5_0" index="0" speed="7.42" length="19.31" shape="309.42,352.84 304.60,356.69 301.16,357.21 299.09,354.41 298.40,348.27"/>
    </edge>
    <edge id=":B2_6" function="internal">
        <lane id=":B2_6_0" index="0" speed="5.47" length="9.74" shape="301.60,348.27 301.95,351.37 302.99,352.78 304.73,352.52 307.16,350.58"/>
    </edge>
    <edge id=":B2_7" function="internal">
        <lane id=":B2_7_0" index="0" speed="13.89" length="17.05" shape="301.60,348.27 301.60,365.33"/>
    </edge>
    <edge id=":B2_8" function="internal">
        <lane id=":B2_8_0" index="0" speed="7.42" length="6.00" shape="301.60,348.27 300.93,354.24"/>
    </edge>
    <edge id=":B2_13" function="internal">
        <lane id=":B2_13_0" index="0" speed="7.42" length="13.30" shape="300.93,354.24 300.91,354.41 298.84,357.21 295.40,356.69 290.58,352.84"/>
    </edge>
    <edge id=":B2_9" function="internal">
        <lane id=":B2_9_0" index="0" speed="5.47" length="9.74" shape="292.84,350.58 295.27,352.52 297.01,352.78 298.05,351.37 298.40,348.27"/>
    </edge>
    <edge id=":B2_10" function="internal">
        <lane id=":B2_10_0" index="0" speed="8.54" length="16.33" shape="292.84,350.58 296.42,353.26 300.00,354.16 303.58,353.26 307.16,350.58"/>
    </edge>
    <edge id=":B2_11" function="internal">
        <lane id=":B2_11_0" index="0" speed="13.73" length="17.52" shape="292.84,350.58 296.67,354.78 299.41,358.64 301.05,362.16 301.60,365.33"/>
    </edge>
    <edge id=":B3_0" function="internal">
        <lane id=":B3_0_0" index="0" speed="12.73" length="15.02" shape="247.16,309.42 243.45,306.00 240.13,303.56 237.20,302.09 234.67,301.60"/>
    </edge>
    <edge id=":B3_1" function="internal">
        <lane id=":B3_1_0" index="0" speed="9.73" length="21.49" shape="247.16,309.42 243.63,304.71 242.45,300.00 243.63,295.29 247.16,290.58"/>
    </edge>
    <edge id=":B3_2" function="internal">
        <lane id=":B3_2_0" index="0" speed="7.42" length="19.31" shape="247.16,309.42 243.31,304.60 242.79,301.16 245.59,299.09 251.73,298.40"/>
    </edge>
    <edge id=":B3_3" function="internal">
        <lane id=":B3_3_0" index="0" speed="5.47" length="9.74" shape="251.73,301.60 248.63,301.95 247.22,302.99 247.48,304.73 249.42,307.16"/>
    </edge>
    <edge id=":B3_4" function="internal">
        <lane id=":B3_4_0" index="0" speed="13.89" length="17.05" shape="251.73,301.60 234.67,301.60"/>
    </edge>
    <edge id=":B3_5" function="internal">
        <lane id=":B3_5_0" index="0" speed="7.42" length="6.00" shape="251.73,301.60 245.76,300.93"/>
    </edge>
    <edge id=":B3_12" function="internal">
        <lane id=":B3_12_0" index="0" speed="7.42" length="13.30" shape="245.76,300.93 245.59,300.91 242.79,298.84 243.31,295.40 247.16,290.58"/>
    </edge>
    <edge id=":B3_6" function="internal">
        <lane id=":B3_6_0" index="0" speed="5.47" length="9.74" shape="249.42,292.84 247.48,295.27 247.22,297.01 248.63,298.05 251.73,298.40"/>
    </edge>
    <edge id=":B3_7" function="internal">
        <lane id=":B3_7_0" index="0" speed="8.54" length="16.33" shape="249.42,292.84 246.74,296.42 245.84,300.00 246.74,303.58 249.42,307.16"/>
    </edge>
    <edge id=":B3_8" function="internal">
        <lane id=":B3_8_0" index="0" speed="13.73" length="17.52" shape="249.42,292.84 245.22,296.67 241.36,299.41 237.84,301.05 234.67,301.60"/>
    </edge>
    <edge id=":B3_9" function="internal">
        <lane id=":B3_9_0" index="0" speed="12.73" length="15.02" shape="234.67,298.40 237.20,297.91 240.13,296.44 243.45,294.00 247.16,290.58"/>
    </edge>
    <edge id=":B3_10" function="internal">
        <lane id=":B3_10_0" index="0" speed="13.89" length="17.05" shape="234.67,298.40 251.73,298.40"/>
    </edge>
    <edge id=":B3_11" function="internal">
        <lane id=":B3_11_0" index="0" speed="13.73" length="3.53" shape="234.67,298.40 237.84,298.95 238.13,299.08"/>
    </edge>
    <edge id=":B3_13" function="internal">
        <lane id=":B3_13_0" index="0" speed="13.73" length="13.98" shape="238.13,299.08 241.36,300.59 245.22,303.33 249.42,307.16"/>
    </edge>
    <edge id=":B4_0" function="internal">
        <lane id=":B4_0_0" index="0" speed="5.47" length="9.74" shape="298.40,251.73 298.05,248.63 297.01,247.22 295.27,247.48 292.84,249.42"/>
    </edge>
    <edge id=":B4_1" function="internal">
        <lane id=":B4_1_0" index="0" speed="13.89" length="17.05" shape="298.40,251.73 298.40,234.67"/>
    </edge>
    <edge id=":B4_2" function="internal">
        <lane id=":B4_2_0" index="0" speed="7.42" length="6.00" shape="298.40,251.73 299.07,245.76"/>
    </edge>
    <edge id=":B4_12" function="internal">
        <lane id=":B4_12_0" index="0" speed="7.42" length="13.30" shape="299.07,245.76 299.09,245.59 301.16,242.79 304.60,243.31 309.42,247.16"/>
    </edge>
    <edge id=":B4_3" function="internal">
        <lane id=":B4_3_0" index="0" speed="5.47" length="9.74" shape="307.16,249.42 304.73,247.48 302.99,247.22 301.95,248.63 301.60,251.73"/>
    </edge>
    <edge id=":B4_4" function="internal">
        <lane id=":B4_4_0" index="0" speed="8.54" length="16.33" shape="307.16,249.42 303.58,246.74 300.00,245.84 296.42,246.74 292.84,249.42"/>
    </edge>
    <edge id=":B4_5" function="internal">
        <lane id=":B4_5_0" index="0" speed="13.73" length="17.52" shape="307.16,249.42 303.33,245.22 300.59,241.36 298.95,237.84 298.40,234.67"/>
    </edge>
    <edge id=":B4_6" function="internal">
        <lane id=":B4_6_0" index="0" speed="12.73" length="15.02" shape="301.60,234.67 302.09,237.20 303.56,240.13 306.00,243.45 309.42,247.16"/>
    </edge>
    <edge id=":B4_7" function="internal">
        <lane id=":B4_7_0" index="0" speed="13.89" length="17.05" shape="301.60,234.67 301.60,251.73"/>
    </edge>
    <edge id=":B4_8" function="internal">
        <lane id=":B4_8_0" index="0" speed="13.73" length="3.53" shape="301.60,234.67 301.05,237.84 300.92,238.13"/>
    </edge>
    <edge id=":B4_13" function="internal">
        <lane id=":B4_13_0" index="0" speed="13.73" length="13.98" shape="300.92,238.13 299.41,241.36 296.67,245.22 292.84,249.42"/>
    </edge>
    <edge id=":B4_9" function="internal">
        <lane id=":B4_9_0" index="0" speed="12.73" length="15.02" shape="290.58,247.16 294.00,243.45 296.44,240.13 297.91,237.20 298.40,234.67"/>
    </edge>
    <edge id=":B4_10" function="internal">
        <lane id=":B4_10_0" index="0" speed="9.73" length="21.49" shape="290.58,247.16 295.29,243.63 300.00,242.45 304.71,243.63 309.42,247.16"/>
    </edge>
    <edge id=":B4_11" function="internal">
        <lane id=":B4_11_0" index="0" speed="7.42" length="19.31" shape="290.58,247.16 295.40,243.31 298.84,242.79 300.91,245.59 301.60,251.73"/>
    </edge>
    <edge id=":C1_0" function="internal">
        <lane id=":C1_0_0" index="0" speed="12.73" length="15.02" shape="425.33,301.60 422.80,302.09 419.87,303.56 416.55,306.00 412.84,309.42"/>
    </edge>
    <edge id=":C1_1" function="internal">
        <lane id=":C1_1_0" index="0" speed="13.89" length="17.05" shape="425.33,301.60 408.27,301.60"/>
    </edge>
    <edge id=":C1_2" function="internal">
        <lane id=":C1_2_0" index="0" speed="13.73" length="3.53" shape="425.33,301.60 422.16,301.05 421.87,300.92"/>
    </edge>
    <edge id=":C1_12" function="internal">
        <lane id=":C1_12_0" index="0" speed="13.73" length="13.98" shape="421.87,300.92 418.64,299.41 414.78,296.67 410.58,292.84"/>
    </edge>
    <edge id=":C1_3" function="internal">
        <lane id=":C1_3_0" index="0" speed="12.73" length="15.02" shape="412.84,290.58 416.55,294.00 419.87,296.44 422.80,297.91 425.33,298.40"/>
    </edge>
    <edge id=":C1_4" function="internal">
        <lane id=":C1_4_0" index="0" speed="9.73" length="21.49" shape="412.84,290.58 416.37,295.29 417.55,300.00 416.37,304.71 412.84,309.42"/>
    </edge>
    <edge id=":C1_5" function="internal">
        <lane id=":C1_5_0" index="0" speed="7.42" length="19.31" shape="412.84,290.58 416.69,295.40 417.21,298.84 414.41,300.91 408.27,301.60"/>
    </edge>
    <edge id=":C1_6" function="internal">
        <lane id=":C1_6_0" index="0" speed="5.47" length="9.74" shape="408.27,298.40 411.37,298.05 412.78,297.01 412.52,295.27 410.58,292.84"/>
    </edge>
    <edge id=":C1_7" function="internal">
        <lane id=":C1_7_0" index="0" speed="13.89" length="17.05" shape="408.27,298.40 425.33,298.40"/>
    </edge>
    <edge id=":C1_8" function="internal">
        <lane id=":C1_8_0" index="0" speed="7.42" length="6.00" shape="408.27,298.40 414.24,299.07"/>
    </edge>
    <edge id=":C1_13" function="internal">
        <lane id=":C1_13_0" index="0" speed="7.42" length="13.30" shape="414.24,299.07 414.41,299.09 417.21,301.16 416.69,304.60 412.84,309.42"/>
    </edge>
    <edge id=":C1_9" function="internal">
        <lane id=":C1_9_0" index="0" speed="5.47" length="9.74" shape="410.58,307.16 412.52,304.73 412.78,302.99 411.37,301.95 408.27,301.60"/>
    </edge>
    <edge id=":C1_10" function="internal">
        <lane id=":C1_10_0" index="0" speed="8.54" length="16.33" shape="410.58,307.16 413.26,303.58 414.16,300.00 413.26,296.42 410.58,292.84"/>
    </edge>
    <edge id=":C1_11" function="internal">
        <lane id=":C1_11_0" index="0" speed="13.73" length="17.52" shape="410.58,307.16 414.78,303.33 418.64,300.59 422.16,298.95 425.33,298.40"/>
    </edge>
    <edge id=":C2_0" function="internal">
        <lane id=":C2_0_0" index="0" speed="12.73" length="15.02" shape="298.40,425.33 297.91,422.80 296.44,419.87 294.00,416.55 290.58,412.84"/>
    </edge>
    <edge id=":C2_1" function="internal">
        <lane id=":C2_1_0" index="0" speed="13.89" length="17.05" shape="298.40,425.33 298.40,408.27"/>
    </edge>
    <edge id=":C2_2" function="internal">
        <lane id=":C2_2_0" index="0" speed="13.73" length="3.53" shape="298.40,425.33 298.95,422.16 299.08,421.87"/>
    </edge>
    <edge id=":C2_12" function="internal">
        <lane id=":C2_12_0" index="0" speed="13.73" length="13.98" shape="299.08,421.87 300.59,418.64 303.33,414.78 307.16,410.58"/>
    </edge>
    <edge id=":C2_3" function="internal">
        <lane id=":C2_3_0" index="0" speed="12.73" length="15.02" shape="309.42,412.84 306.00,416.55 303.56,419.87 302.09,422.80 301.60,425.33"/>
    </edge>
    <edge id=":C2_4" function="internal">
        <lane id=":C2_4_0" index="0" speed="9.73" length="21.49" shape="309.42,412.84 304.71,416.37 300.00,417.55 295.29,416.37 290.58,412.84"/>
    </edge>
    <edge id=":C2_5" function="internal">
        <lane id=":C2_5_0" index="0" speed="7.42" length="19.31" shape="309.42,412.84 304.60,416.69 301.16,417.21 299.09,414.41 298.40,408.27"/>
    </edge>
    <edge id=":C2_6" function="internal">
        <lane id=":C2_6_0" index="0" speed="5.47" length="9.74" shape="301.60,408.27 301.95,411.37 302.99,412.78 304.73,412.52 307.16,410.58"/>
    </edge>
    <edge id=":C2_7" function="internal">
        <lane id=":C2_7_0" index="0" speed="13.89" length="17.05" shape="301.60,408.27 301.60,425.33"/>
    </edge>
    <edge id=":C2_8" function="internal">
        <lane id=":C2_8_0" index="0" speed="7.42" length="6.00" shape="301.60,408.27 300.93,414.24"/>
    </edge>
    <edge id=":C2_13" function="internal">
        <lane id=":C2_13_0" index="0" speed="7.42" length="13.30" shape="300.93,414.24 300.91,414.41 298.84,417.21 295.40,416.69 290.58,412.84"/>
    </edge>
    <edge id=":C2_9" function="internal">
        <lane id=":C2_9_0" index="0" speed="5.47" length="9.74" shape="292.84,410.58 295.27,412.52 297.01,412.78 298.05,411.37 298.40,408.27"/>
    </edge>
    <edge id=":C2_10" function="internal">
        <lane id=":C2_10_0" index="0" speed="8.54" length="16.33" shape="292.84,410.58 296.42,413.26 300.00,414.16 303.58,413.26 307.16,410.58"/>
    </edge>
    <edge id=":C2_11" function="internal">
        <lane id=":C2_11_0" index="0" speed="13.73" length="17.52" shape="292.84,410.58 296.67,414.78 299.41,418.64 301.05,422.16 301.60,425.33"/>
    </edge>
    <edge id=":C3_0" function="internal">
        <lane id=":C3_0_0" index="0" speed="12.73" length="15.02" shape="187.16,309.42 183.45,306.00 180.13,303.56 177.20,302.09 174.67,301.60"/>
    </edge>
    <edge id=":C3_1" function="internal">
        <lane id=":C3_1_0" index="0" speed="9.73" length="21.49" shape="187.16,309.42 183.63,304.71 182.45,300.00 183.63,295.29 187.16,290.58"/>
    </edge>
    <edge id=":C3_2" function="internal">
        <lane id=":C3_2_0" index="0" speed="7.42" length="19.31" shape="187.16,309.42 183.31,304.60 182.79,301.16 185.59,299.09 191.73,298.40"/>
    </edge>
    <edge id=":C3_3" function="internal">
        <lane id=":C3_3_0" index="0" speed="5.47" length="9.74" shape="191.73,301.60 188.63,301.95 187.22,302.99 187.48,304.73 189.42,307.16"/>
    </edge>
    <edge id=":C3_4" function="internal">
        <lane id=":C3_4_0" index="0" speed="13.89" length="17.05" shape="191.73,301.60 174.67,301.60"/>
    </edge>
    <edge id=":C3_5" function="internal">
        <lane id=":C3_5_0" index="0" speed="7.42" length="6.00" shape="191.73,301.60 185.76,300.93"/>
    </edge>
    <edge id=":C3_12" function="internal">
        <lane id=":C3_12_0" index="0" speed="7.42" length="13.30" shape="185.76,300.93 185.59,300.91 182.79,298.84 183.31,295.40 187.16,290.58"/>
    </edge>
    <edge id=":C3_6" function="internal">
        <lane id=":C3_6_0" index="0" speed="5.47" length="9.74" shape="189.42,292.84 187.48,295.27 187.22,297.01 188.63,298.05 191.73,298.40"/>
    </edge>
    <edge id=":C3_7" function="internal">
        <lane id=":C3_7_0" index="0" speed="8.54" length="16.33" shape="189.42,292.84 186.74,296.42 185.84,300.00 186.74,303.58 189.42,307.16"/>
    </edge>
    <edge id=":C3_8" function="internal">
        <lane id=":C3_8_0" index="0" speed="13.73" length="17.52" shape="189.42,292.84 185.22,296.67 181.36,299.41 177.84,301.05 174.67,301.60"/>
    </edge>
    <edge id=":C3_9" function="internal">
        <lane id=":C3_9_0" index="0" speed="12.73" length="15.02" shape="174.67,298.40 177.20,297.91 180.13,296.44 183.45,294.00 187.16,290.58"/>
    </edge>
    <edge id=":C3_10" function="internal">
        <lane id=":C3_10_0" index="0" speed="13.89" length="17.05" shape="174.67,298.40 191.73,298.40"/>
    </edge>
    <edge id=":C3_11" function="internal">
        <lane id=":C3_11_0" index="0" speed="13.73" length="3.53" shape="174.67,298.40 177.84,298.95 178.13,299.08"/>
    </edge>
    <edge id=":C3_13" function="internal">
        <lane id=":C3_13_0" index="0" speed="13.73" length="13.98" shape="178.13,299.08 181.36,300.59 185.22,303.33 189.42,307.16"/>
    </edge>
    <edge id=":C4_0" function="internal">
        <lane id=":C4_0_0" index="0" speed="5.47" length="9.74" shape="298.40,191.73 298.05,188.63 297.01,187.22 295.27,187.48 292.84,189.42"/>
    </edge>
    <edge id=":C4_1" function="internal">
        <lane id=":C4_1_0" index="0" speed="13.89" length="17.05" shape="298.40,191.73 298.40,174.67"/>
    </edge>
    <edge id=":C4_2" function="internal">
        <lane id=":C4_2_0" index="0" speed="7.42" length="6.00" shape="298.40,191.73 299.07,185.76"/>
    </edge>
    <edge id=":C4_12" function="internal">
        <lane id=":C4_12_0" index="0" speed="7.42" length="13.30" shape="299.07,185.76 299.09,185.59 301.16,182.79 304.60,183.31 309.42,187.16"/>
    </edge>
    <edge id=":C4_3" function="internal">
        <lane id=":C4_3_0" index="0" speed="5.47" length="9.74" shape="307.16,189.42 304.73,187.48 302.99,187.22 301.95,188.63 301.60,191.73"/>
    </edge>
    <edge id=":C4_4" function="internal">
        <lane id=":C4_4_0" index="0" speed="8.54" length="16.33" shape="307.16,189.42 303.58,186.74 300.00,185.84 296.42,186.74 292.84,189.42"/>
    </edge>
    <edge id=":C4_5" function="internal">
        <lane id=":C4_5_0" index="0" speed="13.73" length="17.52" shape="307.16,189.42 303.33,185.22 300.59,181.36 298.95,177.84 298.40,174.67"/>
    </edge>
    <edge id=":C4_6" function="internal">
        <lane id=":C4_6_0" index="0" speed="12.73" length="15.02" shape="301.60,174.67 302.09,177.20 303.56,180.13 306.00,183.45 309.42,187.16"/>
    </edge>
    <edge id=":C4_7" function="internal">
        <lane id=":C4_7_0" index="0" speed="13.89" length="17.05" shape="301.60,174.67 301.60,191.73"/>
    </edge>
    <edge id=":C4_8" function="internal">
        <lane id=":C4_8_0" index="0" speed="13.73" length="3.53" shape="301.60,174.67 301.05,177.84 300.92,178.13"/>
    </edge>
    <edge id=":C4_13" function="internal">
        <lane id=":C4_13_0" index="0" speed="13.73" length="13.98" shape="300.92,178.13 299.41,181.36 296.67,185.22 292.84,189.42"/>
    </edge>
    <edge id=":C4_9" function="internal">
        <lane id=":C4_9_0" index="0" speed="12.73" length="15.02" shape="290.58,187.16 294.00,183.45 296.44,180.13 297.91,177.20 298.40,174.67"/>
    </edge>
    <edge id=":C4_10" function="internal">
        <lane id=":C4_10_0" index="0" speed="9.73" length="21.49" shape="290.58,187.16 295.29,183.63 300.00,182.45 304.71,183.63 309.42,187.16"/>
    </edge>
    <edge id=":C4_11" function="internal">
        <lane id=":C4_11_0" index="0" speed="7.42" length="19.31" shape="290.58,187.16 295.40,183.31 298.84,182.79 300.91,185.59 301.60,191.73"/>
    </edge>
    <edge id=":D1_0" function="internal">
        <lane id=":D1_0_0" index="0" speed="12.73" length="15.02" shape="485.33,301.60 482.80,302.09 479.87,303.56 476.55,306.00 472.84,309.42"/>
    </edge>
    <edge id=":D1_1" function="internal">
        <lane id=":D1_1_0" index="0" speed="13.89" length="17.05" shape="485.33,301.60 468.27,301.60"/>
    </edge>
    <edge id=":D1_2" function="internal">
        <lane id=":D1_2_0" index="0" speed="13.73" length="3.53" shape="485.33,301.60 482.16,301.05 481.87,300.92"/>
    </edge>
    <edge id=":D1_12" function="internal">
        <lane id=":D1_12_0" index="0" speed="13.73" length="13.98" shape="481.87,300.92 478.64,299.41 474.78,296.67 470.58,292.84"/>
    </edge>
    <edge id=":D1_3" function="internal">
        <lane id=":D1_3_0" index="0" speed="12.73" length="15.02" shape="472.84,290.58 476.55,294.00 479.87,296.44 482.80,297.91 485.33,298.40"/>
    </edge>
    <edge id=":D1_4" function="internal">
        <lane id=":D1_4_0" index="0" speed="9.73" length="21.49" shape="472.84,290.58 476.37,295.29 477.55,300.00 476.37,304.71 472.84,309.42"/>
    </edge>
    <edge id=":D1_5" function="internal">
        <lane id=":D1_5_0" index="0" speed="7.42" length="19.31" shape="472.84,290.58 476.69,295.40 477.21,298.84 474.41,300.91 468.27,301.60"/>
    </edge>
    <edge id=":D1_6" function="internal">
        <lane id=":D1_6_0" index="0" speed="5.47" length="9.74" shape="468.27,298.40 471.37,298.05 472.78,297.01 472.52,295.27 470.58,292.84"/>
    </edge>
    <edge id=":D1_7" function="internal">
        <lane id=":D1_7_0" index="0" speed="13.89" length="17.05" shape="468.27,298.40 485.33,298.40"/>
    </edge>
    <edge id=":D1_8" function="internal">
        <lane id=":D1_8_0" index="0" speed="7.42" length="6.00" shape="468.27,298.40 474.24,299.07"/>
    </edge>
    <edge id=":D1_13" function="internal">
        <lane id=":D1_13_0" index="0" speed="7.42" length="13.30" shape="474.24,299.07 474.41,299.09 477.21,301.16 476.69,304.60 472.84,309.42"/>
    </edge>
    <edge id=":D1_9" function="internal">
        <lane id=":D1_9_0" index="0" speed="5.47" length="9.74" shape="470.58,307.16 472.52,304.73 472.78,302.99 471.37,301.95 468.27,301.60"/>
    </edge>
    <edge id=":D1_10" function="internal">
        <lane id=":D1_10_0" index="0" speed="8.54" length="16.33" shape="470.58,307.16 473.26,303.58 474.16,300.00 473.26,296.42 470.58,292.84"/>
    </edge>
    <edge id=":D1_11" function="internal">
        <lane id=":D1_11_0" index="0" speed="13.73" length="17.52" shape="470.58,307.16 474.78,303.33 478.64,300.59 482.16,298.95 485.33,298.40"/>
    </edge>
    <edge id=":D2_0" function="internal">
        <lane id=":D2_0_0" index="0" speed="12.73" length="15.02" shape="298.40,485.33 297.91,482.80 296.44,479.87 294.00,476.55 290.58,472.84"/>
    </edge>
    <edge id=":D2_1" function="internal">
        <lane id=":D2_1_0" index="0" speed="13.89" length="17.05" shape="298.40,485.33 298.40,468.27"/>
    </edge>
    <edge id=":D2_2" function="internal">
        <lane id=":D2_2_0" index="0" speed="13.73" length="3.53" shape="298.40,485.33 298.95,482.16 299.08,481.87"/>
    </edge>
    <edge id=":D2_12" function="internal">
        <lane id=":D2_12_0" index="0" speed="13.73" length="13.98" shape="299.08,481.87 300.59,478.64 303.33,474.78 307.16,470.58"/>
    </edge>
    <edge id=":D2_3" function="internal">
        <lane id=":D2_3_0" index="0" speed="12.73" length="15.02" shape="309.42,472.84 306.00,476.55 303.56,479.87 302.09,482.80 301.60,485.33"/>
    </edge>
    <edge id=":D2_4" function="internal">
        <lane id=":D2_4_0" index="0" speed="9.73" length="21.49" shape="309.42,472.84 304.71,476.37 300.00,477.55 295.29,476.37 290.58,472.84"/>
    </edge>
    <edge id=":D2_5" function="internal">
        <lane id=":D2_5_0" index="0" speed="7.42" length="19.31" shape="309.42,472.84 304.60,476.69 301.16,477.21 299.09,474.41 298.40,468.27"/>
    </edge>
    <edge id=":D2_6" function="internal">
        <lane id=":D2_6_0" index="0" speed="5.47" length="9.74" shape="301.60,468.27 301.95,471.37 302.99,472.78 304.73,472.52 307.16,470.58"/>
    </edge>
    <edge id=":D2_7" function="internal">
        <lane id=":D2_7_0" index="0" speed="13.89" length="17.05" shape="301.60,468.27 301.60,485.33"/>
    </edge>
    <edge id=":D2_8" function="internal">
        <lane id=":D2_8_0" index="0" speed="7.42" length="6.00" shape="301.60,468.27 300.93,474.24"/>
    </edge>
    <edge id=":D2_13" function="internal">
        <lane id=":D2_13_0" index="0" speed="7.42" length="13.30" shape="300.93,474.24 300.91,474.41 298.84,477.21 295.40,476.69 290.58,472.84"/>
    </edge>
    <edge id=":D2_9" function="internal">
        <lane id=":D2_9_0" index="0" speed="5.47" length="9.74" shape="292.84,470.58 295.27,472.52 297.01,472.78 298.05,471.37 298.40,468.27"/>
    </edge>
    <edge id=":D2_10" function="internal">
        <lane id=":D2_10_0" index="0" speed="8.54" length="16.33" shape="292.84,470.58 296.42,473.26 300.00,474.16 303.58,473.26 307.16,470.58"/>
    </edge>
    <edge id=":D2_11" function="internal">
        <lane id=":D2_11_0" index="0" speed="13.73" length="17.52" shape="292.84,470.58 296.67,474.78 299.41,478.64 301.05,482.16 301.60,485.33"/>
    </edge>
    <edge id=":D3_0" function="internal">
        <lane id=":D3_0_0" index="0" speed="12.73" length="15.02" shape="127.16,309.42 123.45,306.00 120.13,303.56 117.20,302.09 114.67,301.60"/>
    </edge>
    <edge id=":D3_1" function="internal">