<?xml version="1.0" encoding="UTF-8"?>

<!-- generated on 2026-05-13T10:48:23.312737+00:00 by Eclipse SUMO netgenerate 1.26.0
<netgenerateConfiguration xmlns:xsi="http://www.w3.org/2001/XMLSchema-instance" xsi:noNamespaceSchemaLocation="http://sumo.dlr.de/xsd/netgenerateConfiguration.xsd">

    <grid_network>
        <grid value="true"/>
        <grid.length value="60"/>
        <grid.x-number value="3"/>
        <grid.y-number value="3"/>
    </grid_network>

    <output>
        <output-file value="/raid/xuyifan/jiqiuyu/experiments/sumo_scenarios/networks/grid_2lane.net.xml"/>
    </output>

    <building_defaults>
        <default.lanenumber value="2"/>
        <default.speed value="13.89"/>
    </building_defaults>

</netgenerateConfiguration>
-->

<net version="1.20" junctionCornerDetail="5" limitTurnSpeed="5.50" xmlns:xsi="http://www.w3.org/2001/XMLSchema-instance" xsi:noNamespaceSchemaLocation="http://sumo.dlr.de/xsd/net_file.xsd">

    <location netOffset="0.00,0.00" convBoundary="0.00,0.00,120.00,120.00" origBoundary="0.00,0.00,120.00,120.00" projParameter="!"/>

    <edge id=":A0_0" function="internal">
        <lane id=":A0_0_0" index="0" speed="8.96" length="18.06" shape="-4.80,6.40 -4.10,1.50 -2.00,-2.00 1.50,-4.10 6.40,-4.80"/>
        <lane id=":A0_0_1" index="1" speed="7.66" length="12.90" shape="-1.60,6.40 -1.10,2.90 0.40,0.40 2.90,-1.10 6.40,-1.60"/>
    </edge>
    <edge id=":A0_2" function="internal">
        <lane id=":A0_2_0" index="0" speed="3.90" length="2.58" shape="6.40,4.80 5.70,4.90 5.20,5.20 4.90,5.70 4.80,6.40"/>
        <lane id=":A0_2_1" index="1" speed="6.08" length="7.74" shape="6.40,1.60 4.30,1.90 2.80,2.80 1.90,4.30 1.60,6.40"/>
    </edge>
    <edge id=":A1_0" function="internal">
        <lane id=":A1_0_0" index="0" speed="13.89" length="20.80" shape="-4.80,70.40 -4.80,49.60"/>
        <lane id=":A1_0_1" index="1" speed="13.89" length="20.80" shape="-1.60,70.40 -1.60,49.60"/>
    </edge>
    <edge id=":A1_2" function="internal">
        <lane id=":A1_2_0" index="0" speed="9.26" length="5.01" shape="-1.60,70.40 -0.89,65.44"/>
    </edge>
    <edge id=":A1_3" function="internal">
        <lane id=":A1_3_0" index="0" speed="3.65" length="1.44" shape="-1.60,70.40 -0.80,69.20"/>
    </edge>
    <edge id=":A1_11" function="internal">
        <lane id=":A1_11_0" index="0" speed="9.26" length="14.34" shape="-0.89,65.44 -0.85,65.15 1.40,61.40 5.15,59.15 10.40,58.40"/>
    </edge>
    <edge id=":A1_12" function="internal">
        <lane id=":A1_12_0" index="0" speed="3.65" length="3.23" shape="-0.80,69.20 0.00,68.80 0.80,69.20 1.60,70.40"/>
    </edge>
    <edge id=":A1_4" function="internal">
        <lane id=":A1_4_0" index="0" speed="6.51" length="9.03" shape="10.40,64.80 7.95,65.15 6.20,66.20 5.15,67.95 4.80,70.40"/>
    </edge>
    <edge id=":A1_5" function="internal">
        <lane id=":A1_5_0" index="0" speed="9.26" length="19.35" shape="10.40,61.60 5.15,60.85 1.40,58.60 -0.85,54.85 -1.60,49.60"/>
    </edge>
    <edge id=":A1_6" function="internal">
        <lane id=":A1_6_0" index="0" speed="3.65" length="4.67" shape="10.40,61.60 9.20,60.80 8.80,60.00 9.20,59.20 10.40,58.40"/>
    </edge>
    <edge id=":A1_7" function="internal">
        <lane id=":A1_7_0" index="0" speed="6.51" length="9.03" shape="4.80,49.60 5.15,52.05 6.20,53.80 7.95,54.85 10.40,55.20"/>
    </edge>
    <edge id=":A1_8" function="internal">
        <lane id=":A1_8_0" index="0" speed="13.89" length="20.80" shape="4.80,49.60 4.80,70.40"/>
        <lane id=":A1_8_1" index="1" speed="13.89" length="20.80" shape="1.60,49.60 1.60,70.40"/>
    </edge>
    <edge id=":A1_10" function="internal">
        <lane id=":A1_10_0" index="0" speed="3.65" length="1.44" shape="1.60,49.60 0.80,50.80"/>
    </edge>
    <edge id=":A1_13" function="internal">
        <lane id=":A1_13_0" index="0" speed="3.65" length="3.23" shape="0.80,50.80 0.00,51.20 -0.80,50.80 -1.60,49.60"/>
    </edge>
    <edge id=":A2_0" function="internal">
        <lane id=":A2_0_0" index="0" speed="8.96" length="18.06" shape="6.40,124.80 1.50,124.10 -2.00,122.00 -4.10,118.50 -4.80,113.60"/>
        <lane id=":A2_0_1" index="1" speed="7.66" length="12.90" shape="6.40,121.60 2.90,121.10 0.40,119.60 -1.10,117.10 -1.60,113.60"/>
    </edge>
    <edge id=":A2_2" function="internal">
        <lane id=":A2_2_0" index="0" speed="3.90" length="2.58" shape="4.80,113.60 4.90,114.30 5.20,114.80 5.70,115.10 6.40,115.20"/>
        <lane id=":A2_2_1" index="1" speed="6.08" length="7.74" shape="1.60,113.60 1.90,115.70 2.80,117.20 4.30,118.10 6.40,118.40"/>
    </edge>
    <edge id=":B0_0" function="internal">
        <lane id=":B0_0_0" index="0" speed="6.51" length="9.03" shape="55.20,10.40 54.85,7.95 53.80,6.20 52.05,5.15 49.60,4.80"/>
    </edge>
    <edge id=":B0_1" function="internal">
        <lane id=":B0_1_0" index="0" speed="9.26" length="19.35" shape="58.40,10.40 59.15,5.15 61.40,1.40 65.15,-0.85 70.40,-1.60"/>
    </edge>
    <edge id=":B0_2" function="internal">
        <lane id=":B0_2_0" index="0" speed="3.65" length="4.67" shape="58.40,10.40 59.20,9.20 60.00,8.80 60.80,9.20 61.60,10.40"/>
    </edge>
    <edge id=":B0_3" function="internal">
        <lane id=":B0_3_0" index="0" speed="6.51" length="9.03" shape="70.40,4.80 67.95,5.15 66.20,6.20 65.15,7.95 64.80,10.40"/>
    </edge>
    <edge id=":B0_4" function="internal">
        <lane id=":B0_4_0" index="0" speed="13.89" length="20.80" shape="70.40,4.80 49.60,4.80"/>
        <lane id=":B0_4_1" index="1" speed="13.89" length="20.80" shape="70.40,1.60 49.60,1.60"/>
    </edge>
    <edge id=":B0_6" function="internal">
        <lane id=":B0_6_0" index="0" speed="3.65" length="1.44" shape="70.40,1.60 69.20,0.80"/>
    </edge>
    <edge id=":B0_11" function="internal">
        <lane id=":B0_11_0" index="0" speed="3.65" length="3.23" shape="69.20,0.80 68.80,0.00 69.20,-0.80 70.40,-1.60"/>
    </edge>
    <edge id=":B0_7" function="internal">
        <lane id=":B0_7_0" index="0" speed="13.89" length="20.80" shape="49.60,-4.80 70.40,-4.80"/>
        <lane id=":B0_7_1" index="1" speed="13.89" length="20.80" shape="49.60,-1.60 70.40,-1.60"/>
    </edge>
    <edge id=":B0_9" function="internal">
        <lane id=":B0_9_0" index="0" speed="9.26" length="5.01" shape="49.60,-1.60 54.56,-0.89"/>
    </edge>
    <edge id=":B0_10" function="internal">
        <lane id=":B0_10_0" index="0" speed="3.65" length="1.44" shape="49.60,-1.60 50.80,-0.80"/>
    </edge>
    <edge id=":B0_12" function="internal">
        <lane id=":B0_12_0" index="0" speed="9.26" length="14.34" shape="54.56,-0.89 54.85,-0.85 58.60,1.40 60.85,5.15 61.60,10.40"/>
    </edge>
    <edge id=":B0_13" function="internal">
        <lane id=":B0_13_0" index="0" speed="3.65" length="3.23" shape="50.80,-0.80 51.20,0.00 50.80,0.80 49.60,1.60"/>
    </edge>
    <edge id=":B1_0" function="internal">
        <lane id=":B1_0_0" index="0" speed="6.51" length="9.03" shape="55.20,70.40 54.85,67.95 53.80,66.20 52.05,65.15 49.60,64.80"/>
    </edge>
    <edge id=":B1_1" function="internal">
        <lane id=":B1_1_0" index="0" speed="13.89" length="20.80" shape="55.20,70.40 55.20,49.60"/>
        <lane id=":B1_1_1" index="1" speed="13.89" length="20.80" shape="58.40,70.40 58.40,49.60"/>
    </edge>
    <edge id=":B1_3" function="internal">
        <lane id=":B1_3_0" index="0" speed="9.26" length="5.01" shape="58.40,70.40 59.11,65.44"/>
    </edge>
    <edge id=":B1_4" function="internal">
        <lane id=":B1_4_0" index="0" speed="3.65" length="1.44" shape="58.40,70.40 59.20,69.20"/>
    </edge>
    <edge id=":B1_20" function="internal">
        <lane id=":B1_20_0" index="0" speed="9.26" length="14.34" shape="59.11,65.44 59.15,65.15 61.40,61.40 65.15,59.15 70.40,58.40"/>
    </edge>
    <edge id=":B1_21" function="internal">
        <lane id=":B1_21_0" index="0" speed="3.65" length="3.23" shape="59.20,69.20 60.00,68.80 60.80,69.20 61.60,70.40"/>
    </edge>
    <edge id=":B1_5" function="internal">
        <lane id=":B1_5_0" index="0" speed="6.51" length="9.03" shape="70.40,64.80 67.95,65.15 66.20,66.20 65.15,67.95 64.80,70.40"/>
    </edge>
    <edge id=":B1_6" function="internal">
        <lane id=":B1_6_0" index="0" speed="13.89" length="20.80" shape="70.40,64.80 49.60,64.80"/>
        <lane id=":B1_6_1" index="1" speed="13.89" length="20.80" shape="70.40,61.60 49.60,61.60"/>
    </edge>
    <edge id=":B1_8" function="internal">
        <lane id=":B1_8_0" index="0" speed="9.26" length="19.35" shape="70.40,61.60 65.15,60.85 61.40,58.60 59.15,54.85 58.40,49.60"/>
    </edge>
    <edge id=":B1_9" function="internal">
        <lane id=":B1_9_0" index="0" speed="3.65" length="4.67" shape="70.40,61.60 69.20,60.80 68.80,60.00 69.20,59.20 70.40,58.40"/>
    </edge>
    <edge id=":B1_10" function="internal">
        <lane id=":B1_10_0" index="0" speed="6.51" length="9.03" shape="64.80,49.60 65.15,52.05 66.20,53.80 67.95,54.85 70.40,55.20"/>
    </edge>
    <edge id=":B1_11" function="internal">
        <lane id=":B1_11_0" index="0" speed="13.89" length="20.80" shape="64.80,49.60 64.80,70.40"/>
        <lane id=":B1_11_1" index="1" speed="13.89" length="20.80" shape="61.60,49.60 61.60,70.40"/>
    </edge>
    <edge id=":B1_13" function="internal">
        <lane id=":B1_13_0" index="0" speed="9.26" length="5.01" shape="61.60,49.60 60.89,54.56"/>
    </edge>
    <edge id=":B1_14" function="internal">
        <lane id=":B1_14_0" index="0" speed="3.65" length="1.44" shape="61.60,49.60 60.80,50.80"/>
    </edge>
    <edge id=":B1_22" function="internal">
        <lane id=":B1_22_0" index="0" speed="9.26" length="14.34" shape="60.89,54.56 60.85,54.85 58.60,58.60 54.85,60.85 49.60,61.60"/>
    </edge>
    <edge id=":B1_23" function="internal">
        <lane id=":B1_23_0" index="0" speed="3.65" length="3.23" shape="60.80,50.80 60.00,51.20 59.20,50.80 58.40,49.60"/>
    </edge>
    <edge id=":B1_15" function="internal">
        <lane id=":B1_15_0" index="0" speed="6.51" length="9.03" shape="49.60,55.20 52.05,54.85 53.80,53.80 54.85,52.05 55.20,49.60"/>
    </edge>
    <edge id=":B1_16" function="internal">
        <lane id=":B1_16_0" index="0" speed="13.89" length="20.80" shape="49.60,55.20 70.40,55.20"/>
        <lane id=":B1_16_1" index="1" speed="13.89" length="20.80" shape="49.60,58.40 70.40,58.40"/>
    </edge>
    <edge id=":B1_18" function="internal">
        <lane id=":B1_18_0" index="0" speed="9.26" length="19.35" shape="49.60,58.40 54.85,59.15 58.60,61.40 60.85,65.15 61.60,70.40"/>
    </edge>
    <edge id=":B1_19" function="internal">
        <lane id=":B1_19_0" index="0" speed="3.65" length="4.67" shape="49.60,58.40 50.80,59.20 51.20,60.00 50.80,60.80 49.60,61.60"/>
    </edge>
    <edge id=":B2_0" function="internal">
        <lane id=":B2_0_0" index="0" speed="13.89" length="20.80" shape="70.40,124.80 49.60,124.80"/>
        <lane id=":B2_0_1" index="1" speed="13.89" length="20.80" shape="70.40,121.60 49.60,121.60"/>
    </edge>
    <edge id=":B2_2" function="internal">
        <lane id=":B2_2_0" index="0" speed="9.26" length="5.01" shape="70.40,121.60 65.44,120.89"/>
    </edge>
    <edge id=":B2_3" function="internal">
        <lane id=":B2_3_0" index="0" speed="3.65" length="1.44" shape="70.40,121.60 69.20,120.80"/>
    </edge>
    <edge id=":B2_11" function="internal">
        <lane id=":B2_11_0" index="0" speed="9.26" length="14.34" shape="65.44,120.89 65.15,120.85 61.40,118.60 59.15,114.85 58.40,109.60"/>
    </edge>
    <edge id=":B2_12" function="internal">
        <lane id=":B2_12_0" index="0" speed="3.65" length="3.23" shape="69.20,120.80 68.80,120.00 69.20,119.20 70.40,118.40"/>
    </edge>
    <edge id=":B2_4" function="internal">
        <lane id=":B2_4_0" index="0" speed="6.51" length="9.03" shape="64.80,109.60 65.15,112.05 66.20,113.80 67.95,114.85 70.40,115.20"/>
    </edge>
    <edge id=":B2_5" function="internal">
        <lane id=":B2_5_0" index="0" speed="9.26" length="19.35" shape="61.60,109.60 60.85,114.85 58.60,118.60 54.85,120.85 49.60,121.60"/>
    </edge>
    <edge id=":B2_6" function="internal">
        <lane id=":B2_6_0" index="0" speed="3.65" length="4.67" shape="61.60,109.60 60.80,110.80 60.00,111.20 59.20,110.80 58.40,109.60"/>
    </edge>
    <edge id=":B2_7" function="internal">
        <lane id=":B2_7_0" index="0" speed="6.51" length="9.03" shape="49.60,115.20 52.05,114.85 53.80,113.80 54.85,112.05 55.20,109.60"/>
    </edge>
    <edge id=":B2_8" function="internal">
        <lane id=":B2_8_0" index="0" speed="13.89" length="20.80" shape="49.60,115.20 70.40,115.20"/>
        <lane id=":B2_8_1" index="1" speed="13.89" length="20.80" shape="49.60,118.40 70.40,118.40"/>
    </edge>
    <edge id=":B2_10" function="internal">
        <lane id=":B2_10_0" index="0" speed="3.65" length="1.44" shape="49.60,118.40 50.80,119.20"/>
    </edge>
    <edge id=":B2_13" function="internal">
        <lane id=":B2_13_0" index="0" speed="3.65" length="3.23" shape="50.80,119.20 51.20,120.00 50.80,120.80 49.60,121.60"/>
    </edge>
    <edge id=":C0_0" function="internal">
        <lane id=":C0_0_0" index="0" speed="3.90" length="2.58" shape="115.20,6.40 115.10,5.70 114.80,5.20 114.30,4.90 113.60,4.80"/>
        <lane id=":C0_0_1" index="1" speed="6.08" length="7.74" shape="118.40,6.40 118.10,4.30 117.20,2.80 115.70,1.90 113.60,1.60"/>
    </edge>
    <edge id=":C0_2" function="internal">
        <lane id=":C0_2_0" index="0" speed="8.96" length="18.06" shape="113.60,-4.80 118.50,-4.10 122.00,-2.00 124.10,1.50 124.80,6.40"/>
        <lane id=":C0_2_1" index="1" speed="7.66" length="12.90" shape="113.60,-1.60 117.10,-1.10 119.60,0.40 121.10,2.90 121.60,6.40"/>
    </edge>
    <edge id=":C1_0" function="internal">
        <lane id=":C1_0_0" index="0" speed="6.51" length="9.03" shape="115.20,70.40 114.85,67.95 113.80,66.20 112.05,65.15 109.60,64.80"/>
    </edge>
    <edge id=":C1_1" function="internal">
        <lane id=":C1_1_0" index="0" speed="13.89" length="20.80" shape="115.20,70.40 115.20,49.60"/>
        <lane id=":C1_1_1" index="1" speed="13.89" length="20.80" shape="118.40,70.40 118.40,49.60"/>
    </edge>
    <edge id=":C1_3" function="internal">
        <lane id=":C1_3_0" index="0" speed="3.65" length="1.44" shape="118.40,70.40 119.20,69.20"/>
    </edge>
    <edge id=":C1_11" function="internal">
        <lane id=":C1_11_0" index="0" speed="3.65" length="3.23" shape="119.20,69.20 120.00,68.80 120.80,69.20 121.60,70.40"/>
    </edge>
    <edge id=":C1_4" function="internal">
        <lane id=":C1_4_0" index="0" speed="13.89" length="20.80" shape="124.80,49.60 124.80,70.40"/>
        <lane id=":C1_4_1" index="1" speed="13.89" length="20.80" shape="121.60,49.60 121.60,70.40"/>
    </edge>
    <edge id=":C1_6" function="internal">
        <lane id=":C1_6_0" index="0" speed="9.26" length="5.01" shape="121.60,49.60 120.89,54.56"/>
    </edge>
    <edge id=":C1_7" function="internal">
        <lane id=":C1_7_0" index="0" speed="3.65" length="1.44" shape="121.60,49.60 120.80,50.80"/>
    </edge>
    <edge id=":C1_12" function="internal">
        <lane id=":C1_12_0" index="0" speed="9.26" length="14.34" shape="120.89,54.56 120.85,54.85 118.60,58.60 114.85,60.85 109.60,61.60"/>
    </edge>
    <edge id=":C1_13" function="internal">
        <lane id=":C1_13_0" index="0" speed="3.65" length="3.23" shape="120.80,50.80 120.00,51.20 119.20,50.80 118.40,49.60"/>
    </edge>
    <edge id=":C1_8" function="internal">
        <lane id=":C1_8_0" index="0" speed="6.51" length="9.03" shape="109.60,55.20 112.05,54.85 113.80,53.80 114.85,52.05 115.20,49.60"/>
    </edge>
    <edge id=":C1_9" function="internal">
        <lane id=":C1_9_0" index="0" speed="9.26" length="19.35" shape="109.60,58.40 114.85,59.15 118.60,61.40 120.85,65.15 121.60,70.40"/>
    </edge>
    <edge id=":C1_10" function="internal">
        <lane id=":C1_10_0" index="0" speed="3.65" length="4.67" shape="109.60,58.40 110.80,59.20 111.20,60.00 110.80,60.80 109.60,61.60"/>
    </edge>
    <edge id=":C2_0" function="internal">
        <lane id=":C2_0_0" index="0" speed="8.96" length="18.06" shape="124.80,113.60 124.10,118.50 122.00,122.00 118.50,124.10 113.60,124.80"/>
        <lane id=":C2_0_1" index="1" speed="7.66" length="12.90" shape="121.60,113.60 121.10,117.10 119.60,119.60 117.10,121.10 113.60,121.60"/>
    </edge>
    <edge id=":C2_2" function="internal">
        <lane id=":C2_2_0" index="0" speed="3.90" length="2.58" shape="113.60,115.20 114.30,115.10 114.80,114.80 115.10,114.30 115.20,113.60"/>
        <lane id=":C2_2_1" index="1" speed="6.08" length="7.74" shape="113.60,118.40 115.70,118.10 117.20,117.20 118.10,115.70 118.40,113.60"/>
    </edge>

    <edge id="A0A1" from="A0" to="A1" priority="-1">
        <lane id="A0A1_0" index="0" speed="13.89" length="43.20" shape="4.80,6.40 4.80,49.60"/>
        <lane id="A0A1_1" index="1" speed="13.89" length="43.20" shape="1.60,6.40 1.60,49.60"/>
    </edge>
    <edge id="A0B0" from="A0" to="B0" priority="-1">
        <lane id="A0B0_0" index="0" speed="13.89" length="43.20" shape="6.40,-4.80 49.60,-4.80"/>
        <lane id="A0B0_1" index="1" speed="13.89" length="43.20" shape="6.40,-1.60 49.60,-1.60"/>
    </edge>
    <edge id="A1A0" from="A1" to="A0" priority="-1">
        <lane id="A1A0_0" index="0" speed="13.89" length="43.20" shape="-4.80,49.60 -4.80,6.40"/>
        <lane id="A1A0_1" index="1" speed="13.89" length="43.20" shape="-1.60,49.60 -1.60,6.40"/>
    </edge>
    <edge id="A1A2" from="A1" to="A2" priority="-1">
        <lane id="A1A2_0" index="0" speed="13.89" length="43.20" shape="4.80,70.40 4.80,113.60"/>
        <lane id="A1A2_1" index="1" speed="13.89" length="43.20" shape="1.60,70.40 1.60,113.60"/>
    </edge>
    <edge id="A1B1" from="A1" to="B1" priority="-1">
        <lane id="A1B1_0" index="0" speed="13.89" length="39.20" shape="10.40,55.20 49.60,55.20"/>
        <lane id="A1B1_1" index="1" speed="13.89" length="39.20" shape="10.40,58.40 49.60,58.40"/>
    </edge>
    <edge id="A2A1" from="A2" to="A1" priority="-1">
        <lane id="A2A1_0" index="0" speed="13.89" length="43.20" shape="-4.80,113.60 -4.80,70.40"/>
        <lane id="A2A1_1" index="1" speed="13.89" length="43.20" shape="-1.60,113.60 -1.60,70.40"/>
    </edge>
    <edge id="A2B2" from="A2" to="B2" priority="-1">
        <lane id="A2B2_0" index="0" speed="13.89" length="43.20" shape="6.40,115.20 49.60,115.20"/>
        <lane id="A2B2_1" index="1" speed="13.89" length="43.20" shape="6.40,118.40 49.60,118.40"/>
    </edge>
    <edge id="B0A0" from="B0" to="A0" priority="-1">
        <lane id="B0A0_0" index="0" speed="13.89" length="43.20" shape="49.60,4.80 6.40,4.80"/>
        <lane id="B0A0_1" index="1" speed="13.89" length="43.20" shape="49.60,1.60 6.40,1.60"/>
    </edge>
    <edge id="B0B1" from="B0" to="B1" priority="-1">
        <lane id="B0B1_0" index="0" speed="13.89" length="39.20" shape="64.80,10.40 64.80,49.60"/>
        <lane id="B0B1_1" index="1" speed="13.89" length="39.20" shape="61.60,10.40 61.60,49.60"/>
    </edge>
    <edge id="B0C0" from="B0" to="C0" priority="-1">
        <lane id="B0C0_0" index="0" speed="13.89" length="43.20" shape="70.40,-4.80 113.60,-4.80"/>
        <lane id="B0C0_1" index="1" speed="13.89" length="43.20" shape="70.40,-1.60 113.60,-1.60"/>
    </edge>
    <edge id="B1A1" from="B1" to="A1" priority="-1">
        <lane id="B1A1_0" index="0" speed="13.89" length="39.20" shape="49.60,64.80 10.40,64.80"/>
        <lane id="B1A1_1" index="1" speed="13.89" length="39.20" shape="49.60,61.60 10.40,61.60"/>
    </edge>
    <edge id="B1B0" from="B1" to="B0" priority="-1">
        <lane id="B1B0_0" index="0" speed="13.89" length="39.20" shape="55.20,49.60 55.20,10.40"/>
        <lane id="B1B0_1" index="1" speed="13.89" length="39.20" shape="58.40,49.60 58.40,10.40"/>
    </edge>
    <edge id="B1B2" from="B1" to="B2" priority="-1">
        <lane id="B1B2_0" index="0" speed="13.89" length="39.20" shape="64.80,70.40 64.80,109.60"/>
        <lane id="B1B2_1" index="1" speed="13.89" length="39.20" shape="61.60,70.40 61.60,109.60"/>
    </edge>
    <edge id="B1C1" from="B1" to="C1" priority="-1">
        <lane id="B1C1_0" index="0" speed="13.89" length="39.20" shape="70.40,55.20 109.60,55.20"/>
        <lane id="B1C1_1" index="1" speed="13.89" length="39.20" shape="70.40,58.40 109.60,58.40"/>
    </edge>
    <edge id="B2A2" from="B2" to="A2" priority="-1">
        <lane id="B2A2_0" index="0" speed="13.89" length="43.20" shape="49.60,124.80 6.40,124.80"/>
        <lane id="B2A2_1" index="1" speed="13.89" length="43.20" shape="49.60,121.60 6.40,121.60"/>
    </edge>
    <edge id="B2B1" from="B2" to="B1" priority="-1">
        <lane id="B2B1_0" index="0" speed="13.89" length="39.20" shape="55.20,109.60 55.20,70.40"/>
        <lane id="B2B1_1" index="1" speed="13.89" length="39.20" shape="58.40,109.60 58.40,70.40"/>
    </edge>
    <edge id="B2C2" from="B2" to="C2" priority="-1">
        <lane id="B2C2_0" index="0" speed="13.89" length="43.20" shape="70.40,115.20 113.60,115.20"/>
        <lane id="B2C2_1" index="1" speed="13.89" length="43.20" shape="70.40,118.40 113.60,118.40"/>
    </edge>
    <edge id="C0B0" from="C0" to="B0" priority="-1">
        <lane id="C0B0_0" index="0" speed="13.89" length="43.20" shape="113.60,4.80 70.40,4.80"/>
        <lane id="C0B0_1" index="1" speed="13.89" length="43.20" shape="113.60,1.60 70.40,1.60"/>
    </edge>
    <edge id="C0C1" from="C0" to="C1" priority="-1">
        <lane id="C0C1_0" index="0" speed="13.89" length="43.20" shape="124.80,6.40 124.80,49.60"/>
        <lane id="C0C1_1" index="1" speed="13.89" length="43.20" shape="121.60,6.40 121.60,49.60"/>
    </edge>
    <edge id="C1B1" from="C1" to="B1" priority="-1">
        <lane id="C1B1_0" index="0" speed="13.89" length="39.20" shape="109.60,64.80 70.40,64.80"/>
        <lane id="C1B1_1" index="1" speed="13.89" length="39.20" shape="109.60,61.60 70.40,61.60"/>
    </edge>
    <edge id="C1C0" from="C1" to="C0" priority="-1">
        <lane id="C1C0_0" index="0" speed="13.89" length="43.20" shape="115.20,49.60 115.20,6.40"/>
        <lane id="C1C0_1" index="1" speed="13.89" length="43.20" shape="118.40,49.60 118.40,6.40"/>
    </edge>
    <edge id="C1C2" from="C1" to="C2" priority="-1">
        <lane id="C1C2_0" index="0" speed="13.89" length="43.20" shape="124.80,70.40 124.80,113.60"/>
        <lane id="C1C2_1" index="1" speed="13.89" length="43.20" shape="121.60,70.40 121.60,113.60"/>
    </edge>
    <edge id="C2B2" from="C2" to="B2" priority="-1">
        <lane id="C2B2_0" index="0" speed="13.89" length="43.20" shape="113.60,124.80 70.40,124.80"/>
        <lane id="C2B2_1" index="1" speed="13.89" length="43.20" shape="113.60,121.60 70.40,121.60"/>
    </edge>
    <edge id="C2C1" from="C2" to="C1" priority="-1">
        <lane id="C2C1_0" index="0" speed="13.89" length="43.20" shape="115.20,113.60 115.20,70.40"/>
        <lane id="C2C1_1" index="1" speed="13.89" length="43.20" shape="118.40,113.60 118.40,70.40"/>
    </edge>

    <junction id="A0" type="priority" x="0.00" y="0.00" incLanes="A1A0_0 A1A0_1 B0A0_0 B0A0_1" intLanes=":A0_0_0 :A0_0_1 :A0_2_0 :A0_2_1" shape="-6.40,6.40 6.40,6.40 6.40,-6.40 2.49,-6.04 -0.71,-4.98 -3.20,-3.20 -4.98,-0.71 -6.04,2.49">
        <request index="0" response="0000" foes="0000" cont="0"/>
        <request index="1" response="0000" foes="0000" cont="0"/>
        <request index="2" response="0000" foes="0000" cont="0"/>
        <request index="3" response="0000" foes="0000" cont="0"/>
    </junction>
    <junction id="A1" type="priority" x="0.00" y="60.00" incLanes="A2A1_0 A2A1_1 B1A1_0 B1A1_1 A0A1_0 A0A1_1" intLanes=":A1_0_0 :A1_0_1 :A1_11_0 :A1_12_0 :A1_4_0 :A1_5_0 :A1_6_0 :A1_7_0 :A1_8_0 :A1_8_1 :A1_13_0" shape="-6.40,70.40 6.40,70.40 6.84,68.18 7.40,67.40 8.18,66.84 9.18,66.51 10.40,66.40 10.40,53.60 8.18,53.16 7.40,52.60 6.84,51.82 6.51,50.82 6.40,49.60 -6.40,49.60">
        <request index="0"  response="00000000000" foes="10000100000" cont="0"/>
        <request index="1"  response="00000000000" foes="10000100000" cont="0"/>
        <request index="2"  response="01100000000" foes="01101100000" cont="1"/>
        <request index="3"  response="01100000000" foes="01100000000" cont="1"/>
        <request index="4"  response="01100000000" foes="01100000000" cont="0"/>
        <request index="5"  response="01100000111" foes="11100000111" cont="0"/>
        <request index="6"  response="00000000100" foes="00000000100" cont="0"/>
        <request index="7"  response="00000000000" foes="00000000000" cont="0"/>
        <request index="8"  response="00000000000" foes="00000111100" cont="0"/>
        <request index="9"  response="00000000000" foes="00000111100" cont="0"/>
        <request index="10" response="00000100011" foes="00000100011" cont="1"/>
    </junction>
    <junction id="A2" type="priority" x="0.00" y="120.00" incLanes="B2A2_0 B2A2_1 A1A2_0 A1A2_1" intLanes=":A2_0_0 :A2_0_1 :A2_2_0 :A2_2_1" shape="6.40,126.40 6.40,113.60 -6.40,113.60 -6.04,117.51 -4.98,120.71 -3.20,123.20 -0.71,124.98 2.49,126.04">
        <request index="0" response="0000" foes="0000" cont="0"/>
        <request index="1" response="0000" foes="0000" cont="0"/>
        <request index="2" response="0000" foes="0000" cont="0"/>
        <request index="3" response="0000" foes="0000" cont="0"/>
    </junction>
    <junction id="B0" type="priority" x="60.00" y="0.00" incLanes="B1B0_0 B1B0_1 C0B0_0 C0B0_1 A0B0_0 A0B0_1" intLanes=":B0_0_0 :B0_1_0 :B0_2_0 :B0_3_0 :B0_4_0 :B0_4_1 :B0_11_0 :B0_7_0 :B0_7_1 :B0_12_0 :B0_13_0" shape="53.60,10.40 66.40,10.40 66.84,8.18 67.40,7.40 68.18,6.84 69.18,6.51 70.40,6.40 70.40,-6.40 49.60,-6.40 49.60,6.40 51.82,6.84 52.60,7.40 53.16,8.18 53.49,9.18">
        <request index="0"  response="00000110000" foes="00000110000" cont="0"/>
        <request index="1"  response="01110110000" foes="01111110000" cont="0"/>
        <request index="2"  response="01000000000" foes="01000000000" cont="0"/>
        <request index="3"  response="00000000000" foes="00000000000" cont="0"/>
        <request index="4"  response="00000000000" foes="11000000011" cont="0"/>
        <request index="5"  response="00000000000" foes="11000000011" cont="0"/>
        <request index="6"  response="00110000010" foes="00110000010" cont="1"/>
        <request index="7"  response="00000000000" foes="00001000010" cont="0"/>
        <request index="8"  response="00000000000" foes="00001000010" cont="0"/>
        <request index="9"  response="00000110000" foes="00000110110" cont="1"/>
        <request index="10" response="00000110000" foes="00000110000" cont="1"/>
    </junction>
    <junction id="B1" type="priority" x="60.00" y="60.00" incLanes="B2B1_0 B2B1_1 C1B1_0 C1B1_1 B0B1_0 B0B1_1 A1B1_0 A1B1_1" intLanes=":B1_0_0 :B1_1_0 :B1_1_1 :B1_20_0 :B1_21_0 :B1_5_0 :B1_6_0 :B1_6_1 :B1_8_0 :B1_9_0 :B1_10_0 :B1_11_0 :B1_11_1 :B1_22_0 :B1_23_0 :B1_15_0 :B1_16_0 :B1_16_1 :B1_18_0 :B1_19_0" shape="53.60,70.40 66.40,70.40 66.84,68.18 67.40,67.40 68.18,66.84 69.18,66.51 70.40,66.40 70.40,53.60 68.18,53.16 67.40,52.60 66.84,51.82 66.51,50.82 66.40,49.60 53.60,49.60 53.16,51.82 52.60,52.60 51.82,53.16 50.82,53.49 49.60,53.60 49.60,66.40 51.82,66.84 52.60,67.40 53.16,68.18 53.49,69.18">
        <request index="0"  response="00000000000000000000" foes="00000000000011000000" cont="0"/>
        <request index="1"  response="00000000000000000000" foes="01111110000111000000" cont="0"/>
        <request index="2"  response="00000000000000000000" foes="01111110000111000000" cont="0"/>
        <request index="3"  response="00000001100000000000" foes="01110001101111000000" cont="1"/>
        <request index="4"  response="01000001100000000000" foes="01000001100000000000" cont="1"/>
        <request index="5"  response="00000001100000000000" foes="00000001100000000000" cont="0"/>
        <request index="6"  response="00000011100000001111" foes="11000011100000001111" cont="0"/>
        <request index="7"  response="00000011100000001111" foes="11000011100000001111" cont="0"/>
        <request index="8"  response="00110011100000001110" foes="00110111100000001110" cont="0"/>
        <request index="9"  response="00110000000000001000" foes="00110000000000001000" cont="0"/>
        <request index="10" response="00000000000000000000" foes="00110000000000000000" cont="0"/>
        <request index="11" response="00000000000000000000" foes="01110000000111111000" cont="0"/>
        <request index="12" response="00000000000000000000" foes="01110000000111111000" cont="0"/>
        <request index="13" response="00000000000000000110" foes="11110000000111000110" cont="1"/>
        <request index="14" response="00000000000100000110" foes="00000000000100000110" cont="1"/>
        <request index="15" response="00000000000000000110" foes="00000000000000000110" cont="0"/>
        <request index="16" response="00000011110000001110" foes="00000011111100001110" cont="0"/>
        <request index="17" response="00000011110000001110" foes="00000011111100001110" cont="0"/>
        <request index="18" response="00000011100011001110" foes="00000011100011011110" cont="0"/>
        <request index="19" response="00000010000011000000" foes="00000010000011000000" cont="0"/>
    </junction>
    <junction id="B2" type="priority" x="60.00" y="120.00" incLanes="C2B2_0 C2B2_1 B1B2_0 B1B2_1 A2B2_0 A2B2_1" intLanes=":B2_0_0 :B2_0_1 :B2_11_0 :B2_12_0 :B2_4_0 :B2_5_0 :B2_6_0 :B2_7_0 :B2_8_0 :B2_8_1 :B2_13_0" shape="70.40,126.40 70.40,113.60 68.18,113.16 67.40,112.60 66.84,111.82 66.51,110.82 66.40,109.60 53.60,109.60 53.16,111.82 52.60,112.60 51.82,113.16 50.82,113.49 49.60,113.60 49.60,126.40">
        <request index="0"  response="00000000000" foes="10000100000" cont="0"/>
        <request index="1"  response="00000000000" foes="10000100000" cont="0"/>
        <request index="2"  response="01100000000" foes="01101100000" cont="1"/>
        <request index="3"  response="01100000000" foes="01100000000" cont="1"/>