<?xml version="1.0" encoding="UTF-8"?>

<!-- generated on 2026-05-13T10:48:23.558333+00:00 by Eclipse SUMO netgenerate 1.26.0
<netgenerateConfiguration xmlns:xsi="http://www.w3.org/2001/XMLSchema-instance" xsi:noNamespaceSchemaLocation="http://sumo.dlr.de/xsd/netgenerateConfiguration.xsd">

    <grid_network>
        <grid value="true"/>
        <grid.length value="60"/>
        <grid.x-number value="5"/>
        <grid.y-number value="1"/>
    </grid_network>

    <output>
        <output-file value="/raid/xuyifan/jiqiuyu/experiments/sumo_scenarios/networks/straight_2lane.net.xml"/>
    </output>

    <building_defaults>
        <default.lanenumber value="2"/>
        <default.speed value="13.89"/>
    </building_defaults>

</netgenerateConfiguration>
-->

<net version="1.20" junctionCornerDetail="5" limitTurnSpeed="5.50" xmlns:xsi="http://www.w3.org/2001/XMLSchema-instance" xsi:noNamespaceSchemaLocation="http://sumo.dlr.de/xsd/net_file.xsd">

    <location netOffset="0.00,0.00" convBoundary="0.00,0.00,240.00,0.00" origBoundary="0.00,0.00,240.00,0.00" projParameter="!"/>

    <edge id=":A0_0" function="internal">
        <lane id=":A0_0_0" index="0" speed="3.65" length="4.67" shape="0.00,1.60 -1.20,0.80 -1.60,0.00 -1.20,-0.80 0.00,-1.60"/>
    </edge>
    <edge id=":B0_0" function="internal">
        <lane id=":B0_0_0" index="0" speed="13.89" length="0.10" shape="60.00,4.80 60.00,4.80"/>
        <lane id=":B0_0_1" index="1" speed="13.89" length="0.10" shape="60.00,1.60 60.00,1.60"/>
    </edge>
    <edge id=":B0_2" function="internal">
        <lane id=":B0_2_0" index="0" speed="13.89" length="0.10" shape="60.00,-4.80 60.00,-4.80"/>
        <lane id=":B0_2_1" index="1" speed="13.89" length="0.10" shape="60.00,-1.60 60.00,-1.60"/>
    </edge>
    <edge id=":C0_0" function="internal">
        <lane id=":C0_0_0" index="0" speed="13.89" length="0.10" shape="120.00,4.80 120.00,4.80"/>
        <lane id=":C0_0_1" index="1" speed="13.89" length="0.10" shape="120.00,1.60 120.00,1.60"/>
    </edge>
    <edge id=":C0_2" function="internal">
        <lane id=":C0_2_0" index="0" speed="13.89" length="0.10" shape="120.00,-4.80 120.00,-4.80"/>
        <lane id=":C0_2_1" index="1" speed="13.89" length="0.10" shape="120.00,-1.60 120.00,-1.60"/>
    </edge>
    <edge id=":D0_0" function="internal">
        <lane id=":D0_0_0" index="0" speed="13.89" length="0.10" shape="180.00,4.80 180.00,4.80"/>
        <lane id=":D0_0_1" index="1" speed="13.89" length="0.10" shape="180.00,1.60 180.00,1.60"/>
    </edge>
    <edge id=":D0_2" function="internal">
        <lane id=":D0_2_0" index="0" speed="13.89" length="0.10" shape="180.00,-4.80 180.00,-4.80"/>
        <lane id=":D0_2_1" index="1" speed="13.89" length="0.10" shape="180.00,-1.60 180.00,-1.60"/>
    </edge>
    <edge id=":E0_0" function="internal">
        <lane id=":E0_0_0" index="0" speed="3.65" length="4.67" shape="240.00,-1.60 241.20,-0.80 241.60,0.00 241.20,0.80 240.00,1.60"/>
    </edge>

    <edge id="A0B0" from="A0" to="B0" priority="-1">
        <lane id="A0B0_0" index="0" speed="13.89" length="60.00" shape="0.00,-4.80 60.00,-4.80"/>
        <lane id="A0B0_1" index="1" speed="13.89" length="60.00" shape="0.00,-1.60 60.00,-1.60"/>
    </edge>
    <edge id="B0A0" from="B0" to="A0" priority="-1">
        <lane id="B0A0_0" index="0" speed="13.89" length="60.00" shape="60.00,4.80 0.00,4.80"/>
        <lane id="B0A0_1" index="1" speed="13.89" length="60.00" shape="60.00,1.60 0.00,1.60"/>
    </edge>
    <edge id="B0C0" from="B0" to="C0" priority="-1">
        <lane id="B0C0_0" index="0" speed="13.89" length="60.00" shape="60.00,-4.80 120.00,-4.80"/>
        <lane id="B0C0_1" index="1" speed="13.89" length="60.00" shape="60.00,-1.60 120.00,-1.60"/>
    </edge>
    <edge id="C0B0" from="C0" to="B0" priority="-1">
        <lane id="C0B0_0" index="0" speed="13.89" length="60.00" shape="120.00,4.80 60.00,4.80"/>
        <lane id="C0B0_1" index="1" speed="13.89" length="60.00" shape="120.00,1.60 60.00,1.60"/>
    </edge>
    <edge id="C0D0" from="C0" to="D0" priority="-1">
        <lane id="C0D0_0" index="0" speed="13.89" length="60.00" shape="120.00,-4.80 180.00,-4.80"/>
        <lane id="C0D0_1" index="1" speed="13.89" length="60.00" shape="120.00,-1.60 180.00,-1.60"/>
    </edge>
    <edge id="D0C0" from="D0" to="C0" priority="-1">
        <lane id="D0C0_0" index="0" speed="13.89" length="60.00" shape="180.00,4.80 120.00,4.80"/>
        <lane id="D0C0_1" index="1" speed="13.89" length="60.00" shape="180.00,1.60 120.00,1.60"/>
    </edge>
    <edge id="D0E0" from="D0" to="E0" priority="-1">
        <lane id="D0E0_0" index="0" speed="13.89" length="60.00" shape="180.00,-4.80 240.00,-4.80"/>
        <lane id="D0E0_1" index="1" speed="13.89" length="60.00" shape="180.00,-1.60 240.00,-1.60"/>
    </edge>
    <edge id="E0D0" from="E0" to="D0" priority="-1">
        <lane id="E0D0_0" index="0" speed="13.89" length="60.00" shape="240.00,4.80 180.00,4.80"/>
        <lane id="E0D0_1" index="1" speed="13.89" length="60.00" shape="240.00,1.60 180.00,1.60"/>
    </edge>

    <junction id="A0" type="priority" x="0.00" y="0.00" incLanes="B0A0_0 B0A0_1" intLanes=":A0_0_0" shape="0.00,0.00 0.00,6.40 0.00,0.00">
        <request index="0" response="0" foes="0" cont="0"/>
    </junction>
    <junction id="B0" type="priority" x="60.00" y="0.00" incLanes="C0B0_0 C0B0_1 A0B0_0 A0B0_1" intLanes=":B0_0_0 :B0_0_1 :B0_2_0 :B0_2_1" shape="60.00,6.40 60.00,-6.40 60.00,6.40">
        <request index="0" response="0000" foes="0000" cont="0"/>
        <request index="1" response="0000" foes="0000" cont="0"/>
        <request index="2" response="0000" foes="0000" cont="0"/>
        <request index="3" response="0000" foes="0000" cont="0"/>
    </junction>
    <junction id="C0" type="priority" x="120.00" y="0.00" incLanes="D0C0_0 D0C0_1 B0C0_0 B0C0_1" intLanes=":C0_0_0 :C0_0_1 :C0_2_0 :C0_2_1" shape="120.00,6.40 120.00,-6.40 120.00,6.40">
        <request index="0" response="0000" foes="0000" cont="0"/>
        <request index="1" response="0000" foes="0000" cont="0"/>
        <request index="2" response="0000" foes="0000" cont="0"/>
        <request index="3" response="0000" foes="0000" cont="0"/>
    </junction>
    <junction id="D0" type="priority" x="180.00" y="0.00" incLanes="E0D0_0 E0D0_1 C0D0_0 C0D0_1" intLanes=":D0_0_0 :D0_0_1 :D0_2_0 :D0_2_1" shape="180.00,6.40 180.00,-6.40 180.00,6.40">
        <request index="0" response="0000" foes="0000" cont="0"/>
        <request index="1" response="0000" foes="0000" cont="0"/>
        <request index="2" response="0000" foes="0000" cont="0"/>
        <request index="3" response="0000" foes="0000" cont="0"/>
    </junction>
    <junction id="E0" type="priority" x="240.00" y="0.00" incLanes="D0E0_0 D0E0_1" intLanes=":E0_0_0" shape="240.00,0.00 240.00,-6.40 240.00,0.00">
        <request index="0" response="0" foes="0" cont="0"/>
    </junction>

    <connection from="A0B0" to="B0C0" fromLane="0" toLane="0" via=":B0_2_0" dir="s" state="M"/>
    <connection from="A0B0" to="B0C0" fromLane="1" toLane="1" via=":B0_2_1" dir="s" state="M"/>
    <connection from="B0A0" to="A0B0" fromLane="1" toLane="1" via=":A0_0_0" dir="t" state="M"/>
    <connection from="B0C0" to="C0D0" fromLane="0" toLane="0" via=":C0_2_0" dir="s" state="M"/>
    <connection from="B0C0" to="C0D0" fromLane="1" toLane="1" via=":C0_2_1" dir="s" state="M"/>
    <connection from="C0B0" to="B0A0" fromLane="0" toLane="0" via=":B0_0_0" dir="s" state="M"/>
    <connection from="C0B0" to="B0A0" fromLane="1" toLane="1" via=":B0_0_1" dir="s" state="M"/>
    <connection from="C0D0" to="D0E0" fromLane="0" toLane="0" via=":D0_2_0" dir="s" state="M"/>
    <connection from="C0D0" to="D0E0" fromLane="1" toLane="1" via=":D0_2_1" dir="s" state="M"/>
    <connection from="D0C0" to="C0B0" fromLane="0" toLane="0" via=":C0_0_0" dir="s" state="M"/>
    <connection from="D0C0" to="C0B0" fromLane="1" toLane="1" via=":C0_0_1" dir="s" state="M"/>
    <connection from="D0E0" to="E0D0" fromLane="1" toLane="1" via=":E0_0_0" dir="t" state="M"/>
    <connection from="E0D0" to="D0C0" fromLane="0" toLane="0" via=":D0_0_0" dir="s" state="M"/>
    <connection from="E0D0" to="D0C0" fromLane="1" toLane="1" via=":D0_0_1" dir="s" state="M"/>

    <connection from=":A0_0" to="A0B0" fromLane="0" toLane="1" dir="t" state="M"/>
    <connection from=":B0_0" to="B0A0" fromLane="0" toLane="0" dir="s" state="M"/>
    <connection from=":B0_0" to="B0A0" fromLane="1" toLane="1" dir="s" state="M"/>
    <connection from=":B0_2" to="B0C0" fromLane="0" toLane="0" dir="s" state="M"/>
    <connection from=":B0_2" to="B0C0" fromLane="1" toLane="1" dir="s" state="M"/>
    <connection from=":C0_0" to="C0B0" fromLane="0" toLane="0" dir="s" state="M"/>
    <connection from=":C0_0" to="C0B0" fromLane="1" toLane="1" dir="s" state="M"/>
    <connection from=":C0_2" to="C0D0" fromLane="0" toLane="0" dir="s" state="M"/>
    <connection from=":C0_2" to="C0D0" fromLane="1" toLane="1" dir="s" state="M"/>
    <connection from=":D0_0" to="D0C0" fromLane="0" toLane="0" dir="s" state="M"/>
    <connection from=":D0_0" to="D0C0" fromLane="1" toLane="1" dir="s" state="M"/>
    <connection from=":D0_2" to="D0E0" fromLane="0" toLane="0" dir="s" state="M"/>
    <connection from=":D0_2" to="D0E0" fromLane="1" toLane="1" dir="s" state="M"/>
    <connection from=":E0_0" to="E0D0" fromLane="0" toLane="1" dir="t" state="M"/>

</net>
