<?xml version="1.0" encoding="UTF-8"?>

<!-- generated on 2026-05-10T16:10:12.295140+00:00 by Eclipse SUMO netgenerate 1.26.0
<netgenerateConfiguration xmlns:xsi="http://www.w3.org/2001/XMLSchema-instance" xsi:noNamespaceSchemaLocation="http://sumo.dlr.de/xsd/netgenerateConfiguration.xsd">

    <spider_network>
        <spider value="true"/>
        <spider.arm-number value="3"/>
        <spider.space-radius value="60"/>
    </spider_network>

    <output>
        <output-file value="/raid/xuyifan/jiqiuyu/experiments/sumo_scenarios/networks/t_junction_1lane.net.xml"/>
    </output>

    <building_defaults>
        <default.lanenumber value="1"/>
        <default.speed value="13.89"/>
    </building_defaults>

    <junctions>
        <no-turnarounds value="true"/>
    </junctions>

</netgenerateConfiguration>
-->

<net version="1.20" junctionCornerDetail="5" limitTurnSpeed="5.50" xmlns:xsi="http://www.w3.org/2001/XMLSchema-instance" xsi:noNamespaceSchemaLocation="http://sumo.dlr.de/xsd/net_file.xsd">

    <location netOffset="150.00,259.81" convBoundary="0.00,0.00,450.00,519.62" origBoundary="-150.00,-259.81,300.00,259.81" projParameter="!"/>

    <edge id=":A1_0" function="internal">
        <lane id=":A1_0_0" index="0" speed="6.75" length="5.88" shape="154.16,261.41 152.64,261.59 151.33,262.11 150.22,262.99 149.31,264.21"/>
    </edge>
    <edge id=":A1_1" function="internal">
        <lane id=":A1_1_0" index="0" speed="8.24" length="9.07" shape="154.16,261.41 152.07,261.03 149.87,260.03 147.91,258.63 146.54,257.01"/>
    </edge>
    <edge id=":A1_2" function="internal">
        <lane id=":A1_2_0" index="0" speed="6.75" length="5.88" shape="149.31,255.41 150.22,256.63 151.33,257.51 152.64,258.03 154.16,258.21"/>
    </edge>
    <edge id=":A1_3" function="internal">
        <lane id=":A1_3_0" index="0" speed="8.24" length="9.07" shape="149.31,255.41 150.02,257.40 150.26,259.81 150.02,262.22 149.31,264.21"/>
    </edge>
    <edge id=":A1_4" function="internal">
        <lane id=":A1_4_0" index="0" speed="6.75" length="5.88" shape="146.54,262.61 147.14,261.21 147.34,259.81 147.14,258.41 146.54,257.01"/>
    </edge>
    <edge id=":A1_5" function="internal">
        <lane id=":A1_5_0" index="0" speed="8.24" length="9.07" shape="146.54,262.61 147.91,260.99 149.87,259.59 152.07,258.59 154.16,258.21"/>
    </edge>
    <edge id=":B1_0" function="internal">
        <lane id=":B1_0_0" index="0" speed="13.89" length="19.62" shape="214.86,261.41 210.57,262.27 205.67,264.35 200.91,266.90 196.99,269.17"/>
    </edge>
    <edge id=":B1_1" function="internal">
        <lane id=":B1_1_0" index="0" speed="13.89" length="20.80" shape="214.86,261.41 194.06,261.41"/>
    </edge>
    <edge id=":B1_2" function="internal">
        <lane id=":B1_2_0" index="0" speed="13.89" length="3.59" shape="214.86,261.41 211.34,260.69"/>
    </edge>
    <edge id=":B1_12" function="internal">
        <lane id=":B1_12_0" index="0" speed="13.89" length="17.66" shape="211.34,260.69 210.32,260.48 204.87,258.25 199.56,255.56 195.39,253.22"/>
    </edge>
    <edge id=":B1_3" function="internal">
        <lane id=":B1_3_0" index="0" speed="13.89" length="19.62" shape="196.99,250.45 200.91,252.72 205.67,255.27 210.57,257.35 214.86,258.21"/>
    </edge>
    <edge id=":B1_4" function="internal">
        <lane id=":B1_4_0" index="0" speed="9.00" length="25.54" shape="196.99,250.45 203.07,255.13 205.10,259.81 203.07,264.49 196.99,269.17"/>
    </edge>
    <edge id=":B1_5" function="internal">
        <lane id=":B1_5_0" index="0" speed="6.36" length="15.42" shape="196.99,250.45 199.72,253.49 199.93,257.11 197.94,260.14 194.06,261.41"/>
    </edge>
    <edge id=":B1_6" function="internal">
        <lane id=":B1_6_0" index="0" speed="5.53" length="11.20" shape="194.06,258.21 197.88,257.90 199.38,256.96 198.55,255.41 195.39,253.22"/>
    </edge>
    <edge id=":B1_7" function="internal">
        <lane id=":B1_7_0" index="0" speed="13.89" length="20.80" shape="194.06,258.21 214.86,258.21"/>
    </edge>
    <edge id=":B1_8" function="internal">
        <lane id=":B1_8_0" index="0" speed="6.36" length="2.40" shape="194.06,258.21 196.34,258.95"/>
    </edge>
    <edge id=":B1_13" function="internal">
        <lane id=":B1_13_0" index="0" speed="6.36" length="13.03" shape="196.34,258.95 197.94,259.48 199.93,262.51 199.72,266.13 196.99,269.17"/>
    </edge>
    <edge id=":B1_9" function="internal">
        <lane id=":B1_9_0" index="0" speed="5.53" length="11.20" shape="195.39,266.40 198.55,264.21 199.38,262.66 197.88,261.72 194.06,261.41"/>
    </edge>
    <edge id=":B1_10" function="internal">
        <lane id=":B1_10_0" index="0" speed="7.64" length="17.97" shape="195.39,266.40 199.67,263.10 201.10,259.81 199.67,256.52 195.39,253.22"/>
    </edge>
    <edge id=":B1_11" function="internal">
        <lane id=":B1_11_0" index="0" speed="13.89" length="21.25" shape="195.39,266.40 199.56,264.06 204.87,261.37 210.32,259.14 214.86,258.21"/>
    </edge>
    <edge id=":B2_0" function="internal">
        <lane id=":B2_0_0" index="0" speed="13.89" length="19.62" shape="134.61,305.18 130.69,307.44 126.10,310.29 121.85,313.49 118.96,316.78"/>
    </edge>
    <edge id=":B2_1" function="internal">
        <lane id=":B2_1_0" index="0" speed="9.00" length="25.54" shape="134.61,305.18 127.52,308.11 122.45,307.52 119.41,303.43 118.40,295.83"/>
    </edge>
    <edge id=":B2_2" function="internal">
        <lane id=":B2_2_0" index="0" speed="6.36" length="15.42" shape="134.61,305.18 130.61,306.03 127.37,304.40 125.74,301.16 126.59,297.16"/>
    </edge>
    <edge id=":B2_3" function="internal">
        <lane id=":B2_3_0" index="0" speed="5.53" length="11.20" shape="129.36,298.76 127.72,302.23 127.78,303.99 129.54,304.05 133.01,302.41"/>
    </edge>
    <edge id=":B2_4" function="internal">
        <lane id=":B2_4_0" index="0" speed="13.89" length="20.80" shape="129.36,298.76 118.96,316.78"/>
    </edge>
    <edge id=":B2_5" function="internal">
        <lane id=":B2_5_0" index="0" speed="6.36" length="2.40" shape="129.36,298.76 127.57,300.37"/>
    </edge>
    <edge id=":B2_12" function="internal">
        <lane id=":B2_12_0" index="0" speed="6.36" length="13.03" shape="127.57,300.37 126.32,301.49 122.70,301.71 119.67,299.71 118.40,295.83"/>
    </edge>
    <edge id=":B2_6" function="internal">
        <lane id=":B2_6_0" index="0" speed="5.53" length="11.20" shape="121.60,295.83 121.91,299.65 122.85,301.15 124.40,300.32 126.59,297.16"/>
    </edge>
    <edge id=":B2_7" function="internal">
        <lane id=":B2_7_0" index="0" speed="7.64" length="17.97" shape="121.60,295.83 122.31,301.18 124.45,304.06 128.02,304.47 133.01,302.41"/>
    </edge>
    <edge id=":B2_8" function="internal">
        <lane id=":B2_8_0" index="0" speed="13.89" length="21.25" shape="121.60,295.83 121.54,300.60 121.22,306.55 120.42,312.38 118.96,316.78"/>
    </edge>
    <edge id=":B2_9" function="internal">
        <lane id=":B2_9_0" index="0" speed="13.89" length="19.62" shape="116.19,315.18 117.59,311.03 118.23,305.75 118.41,300.35 118.40,295.83"/>
    </edge>
    <edge id=":B2_10" function="internal">
        <lane id=":B2_10_0" index="0" speed="13.89" length="20.80" shape="116.19,315.18 126.59,297.16"/>
    </edge>
    <edge id=":B2_11" function="internal">
        <lane id=":B2_11_0" index="0" speed="13.89" length="3.59" shape="116.19,315.18 118.57,312.49"/>
    </edge>
    <edge id=":B2_13" function="internal">
        <lane id=":B2_13_0" index="0" speed="13.89" length="17.66" shape="118.57,312.49 119.26,311.71 123.91,308.11 128.90,304.85 133.01,302.41"/>
    </edge>
    <edge id=":B3_0" function="internal">
        <lane id=":B3_0_0" index="0" speed="13.89" length="19.62" shape="118.40,223.79 118.41,219.27 118.23,213.87 117.59,208.59 116.19,204.44"/>
    </edge>
    <edge id=":B3_1" function="internal">
        <lane id=":B3_1_0" index="0" speed="9.00" length="25.54" shape="118.40,223.79 119.41,216.19 122.45,212.10 127.52,211.51 134.61,214.44"/>
    </edge>
    <edge id=":B3_2" function="internal">
        <lane id=":B3_2_0" index="0" speed="6.36" length="15.42" shape="118.40,223.79 119.67,219.91 122.70,217.91 126.32,218.13 129.36,220.86"/>
    </edge>
    <edge id=":B3_3" function="internal">
        <lane id=":B3_3_0" index="0" speed="5.53" length="11.20" shape="126.59,222.46 124.40,219.30 122.85,218.47 121.91,219.97 121.60,223.79"/>
    </edge>
    <edge id=":B3_4" function="internal">
        <lane id=":B3_4_0" index="0" speed="13.89" length="20.80" shape="126.59,222.46 116.19,204.44"/>
    </edge>
    <edge id=":B3_5" function="internal">
        <lane id=":B3_5_0" index="0" speed="6.36" length="2.40" shape="126.59,222.46 126.09,220.11"/>
    </edge>
    <edge id=":B3_12" function="internal">
        <lane id=":B3_12_0" index="0" speed="6.36" length="13.03" shape="126.09,220.11 125.74,218.46 127.37,215.22 130.61,213.59 134.61,214.44"/>
    </edge>
    <edge id=":B3_6" function="internal">
        <lane id=":B3_6_0" index="0" speed="5.53" length="11.20" shape="133.01,217.21 129.54,215.57 127.78,215.63 127.72,217.39 129.36,220.86"/>
    </edge>
    <edge id=":B3_7" function="internal">
        <lane id=":B3_7_0" index="0" speed="7.64" length="17.97" shape="133.01,217.21 128.02,215.15 124.45,215.56 122.31,218.44 121.60,223.79"/>
    </edge>
    <edge id=":B3_8" function="internal">
        <lane id=":B3_8_0" index="0" speed="13.89" length="21.25" shape="133.01,217.21 128.90,214.77 123.91,211.51 119.26,207.91 116.19,204.44"/>
    </edge>
    <edge id=":B3_9" function="internal">
        <lane id=":B3_9_0" index="0" speed="13.89" length="19.62" shape="118.96,202.84 121.85,206.13 126.10,209.33 130.69,212.18 134.61,214.44"/>
    </edge>
    <edge id=":B3_10" function="internal">
        <lane id=":B3_10_0" index="0" speed="13.89" length="20.80" shape="118.96,202.84 129.36,220.86"/>
    </edge>
    <edge id=":B3_11" function="internal">
        <lane id=":B3_11_0" index="0" speed="13.89" length="3.59" shape="118.96,202.84 120.09,206.25"/>
    </edge>
    <edge id=":B3_13" function="internal">
        <lane id=":B3_13_0" index="0" speed="13.89" length="17.66" shape="120.09,206.25 120.42,207.24 121.22,213.07 121.54,219.02 121.60,223.79"/>
    </edge>
    <edge id=":C1_0" function="internal">
        <lane id=":C1_0_0" index="0" speed="13.89" length="19.62" shape="274.86,261.41 270.57,262.27 265.67,264.35 260.91,266.90 256.99,269.17"/>
    </edge>
    <edge id=":C1_1" function="internal">
        <lane id=":C1_1_0" index="0" speed="13.89" length="20.80" shape="274.86,261.41 254.06,261.41"/>
    </edge>
    <edge id=":C1_2" function="internal">
        <lane id=":C1_2_0" index="0" speed="13.89" length="3.59" shape="274.86,261.41 271.34,260.69"/>
    </edge>
    <edge id=":C1_12" function="internal">
        <lane id=":C1_12_0" index="0" speed="13.89" length="17.66" shape="271.34,260.69 270.32,260.48 264.87,258.25 259.56,255.56 255.39,253.22"/>
    </edge>
    <edge id=":C1_3" function="internal">
        <lane id=":C1_3_0" index="0" speed="13.89" length="19.62" shape="256.99,250.45 260.91,252.72 265.67,255.27 270.57,257.35 274.86,258.21"/>
    </edge>
    <edge id=":C1_4" function="internal">
        <lane id=":C1_4_0" index="0" speed="9.00" length="25.54" shape="256.99,250.45 263.07,255.13 265.10,259.81 263.07,264.49 256.99,269.17"/>
    </edge>
    <edge id=":C1_5" function="internal">
        <lane id=":C1_5_0" index="0" speed="6.36" length="15.42" shape="256.99,250.45 259.72,253.49 259.94,257.11 257.94,260.14 254.06,261.41"/>
    </edge>
    <edge id=":C1_6" function="internal">
        <lane id=":C1_6_0" index="0" speed="5.53" length="11.20" shape="254.06,258.21 257.88,257.90 259.38,256.96 258.55,255.41 255.39,253.22"/>
    </edge>
    <edge id=":C1_7" function="internal">
        <lane id=":C1_7_0" index="0" speed="13.89" length="20.80" shape="254.06,258.21 274.86,258.21"/>
    </edge>
    <edge id=":C1_8" function="internal">
        <lane id=":C1_8_0" index="0" speed="6.36" length="2.40" shape="254.06,258.21 256.34,258.95"/>
    </edge>
    <edge id=":C1_13" function="internal">
        <lane id=":C1_13_0" index="0" speed="6.36" length="13.03" shape="256.34,258.95 257.94,259.48 259.93,262.51 259.72,266.13 256.99,269.17"/>
    </edge>
    <edge id=":C1_9" function="internal">
        <lane id=":C1_9_0" index="0" speed="5.53" length="11.20" shape="255.39,266.40 258.55,264.21 259.38,262.66 257.88,261.72 254.06,261.41"/>
    </edge>
    <edge id=":C1_10" function="internal">
        <lane id=":C1_10_0" index="0" speed="7.64" length="17.97" shape="255.39,266.40 259.67,263.10 261.10,259.81 259.67,256.52 255.39,253.22"/>
    </edge>
    <edge id=":C1_11" function="internal">
        <lane id=":C1_11_0" index="0" speed="13.89" length="21.25" shape="255.39,266.40 259.56,264.06 264.87,261.37 270.32,259.14 274.86,258.21"/>
    </edge>
    <edge id=":C2_0" function="internal">
        <lane id=":C2_0_0" index="0" speed="13.89" length="19.62" shape="104.61,357.14 100.69,359.40 96.10,362.25 91.85,365.45 88.96,368.74"/>
    </edge>
    <edge id=":C2_1" function="internal">
        <lane id=":C2_1_0" index="0" speed="9.00" length="25.54" shape="104.61,357.14 97.52,360.07 92.45,359.48 89.41,355.39 88.40,347.79"/>
    </edge>
    <edge id=":C2_2" function="internal">
        <lane id=":C2_2_0" index="0" speed="6.36" length="15.42" shape="104.61,357.14 100.61,357.99 97.37,356.36 95.74,353.12 96.59,349.12"/>
    </edge>
    <edge id=":C2_3" function="internal">
        <lane id=":C2_3_0" index="0" speed="5.53" length="11.20" shape="99.36,350.72 97.72,354.19 97.78,355.95 99.54,356.01 103.01,354.37"/>
    </edge>
    <edge id=":C2_4" function="internal">
        <lane id=":C2_4_0" index="0" speed="13.89" length="20.80" shape="99.36,350.72 88.96,368.74"/>
    </edge>
    <edge id=":C2_5" function="internal">
        <lane id=":C2_5_0" index="0" speed="6.36" length="2.40" shape="99.36,350.72 97.57,352.33"/>
    </edge>
    <edge id=":C2_12" function="internal">
        <lane id=":C2_12_0" index="0" speed="6.36" length="13.03" shape="97.57,352.33 96.32,353.45 92.70,353.67 89.67,351.67 88.40,347.79"/>
    </edge>
    <edge id=":C2_6" function="internal">
        <lane id=":C2_6_0" index="0" speed="5.53" length="11.20" shape="91.60,347.79 91.91,351.61 92.85,353.11 94.40,352.28 96.59,349.12"/>
    </edge>
    <edge id=":C2_7" function="internal">
        <lane id=":C2_7_0" index="0" speed="7.64" length="17.97" shape="91.60,347.79 92.31,353.14 94.45,356.02 98.02,356.43 103.01,354.37"/>
    </edge>
    <edge id=":C2_8" function="internal">
        <lane id=":C2_8_0" index="0" speed="13.89" length="21.25" shape="91.60,347.79 91.54,352.56 91.22,358.51 90.42,364.34 88.96,368.74"/>
    </edge>
    <edge id=":C2_9" function="internal">
        <lane id=":C2_9_0" index="0" speed="13.89" length="19.62" shape="86.19,367.14 87.59,362.99 88.23,357.71 88.41,352.31 88.40,347.79"/>
    </edge>
    <edge id=":C2_10" function="internal">
        <lane id=":C2_10_0" index="0" speed="13.89" length="20.80" shape="86.19,367.14 96.59,349.12"/>
    </edge>
    <edge id=":C2_11" function="internal">
        <lane id=":C2_11_0" index="0" speed="13.89" length="3.59" shape="86.19,367.14 88.57,364.45"/>
    </edge>
    <edge id=":C2_13" function="internal">
        <lane id=":C2_13_0" index="0" speed="13.89" length="17.66" shape="88.57,364.45 89.26,363.67 93.91,360.07 98.90,356.81 103.01,354.37"/>
    </edge>
    <edge id=":C3_0" function="internal">
        <lane id=":C3_0_0" index="0" speed="13.89" length="19.62" shape="88.40,171.82 88.41,167.30 88.23,161.90 87.59,156.62 86.19,152.47"/>
    </edge>
    <edge id=":C3_1" function="internal">
        <lane id=":C3_1_0" index="0" speed="9.00" length="25.54" shape="88.40,171.82 89.41,164.22 92.45,160.13 97.52,159.54 104.61,162.47"/>
    </edge>
    <edge id=":C3_2" function="internal">
        <lane id=":C3_2_0" index="0" speed="6.36" length="15.42" shape="88.40,171.82 89.67,167.94 92.70,165.95 96.32,166.16 99.36,168.89"/>
    </edge>
    <edge id=":C3_3" function="internal">
        <lane id=":C3_3_0" index="0" speed="5.53" length="11.20" shape="96.59,170.49 94.40,167.33 92.85,166.50 91.91,168.00 91.60,171.82"/>
    </edge>
    <edge id=":C3_4" function="internal">
        <lane id=":C3_4_0" index="0" speed="13.89" length="20.80" shape="96.59,170.49 86.19,152.47"/>
    </edge>
    <edge id=":C3_5" function="internal">
        <lane id=":C3_5_0" index="0" speed="6.36" length="2.40" shape="96.59,170.49 96.09,168.14"/>
    </edge>
    <edge id=":C3_12" function="internal">
        <lane id=":C3_12_0" index="0" speed="6.36" length="13.03" shape="96.09,168.14 95.74,166.49 97.37,163.25 100.61,161.62 104.61,162.47"/>
    </edge>
    <edge id=":C3_6" function="internal">
        <lane id=":C3_6_0" index="0" speed="5.53" length="11.20" shape="103.01,165.24 99.54,163.60 97.78,163.66 97.72,165.42 99.36,168.89"/>
    </edge>
    <edge id=":C3_7" function="internal">
        <lane id=":C3_7_0" index="0" speed="7.64" length="17.97" shape="103.01,165.24 98.02,163.18 94.45,163.59 92.31,166.47 91.60,171.82"/>
    </edge>
    <edge id=":C3_8" function="internal">
        <lane id=":C3_8_0" index="0" speed="13.89" length="21.25" shape="103.01,165.24 98.90,162.80 93.91,159.54 89.26,155.94 86.19,152.47"/>
    </edge>
    <edge id=":C3_9" function="internal">
        <lane id=":C3_9_0" index="0" speed="13.89" length="19.62" shape="88.96,150.87 91.85,154.16 96.09,157.36 100.69,160.21 104.61,162.47"/>
    </edge>
    <edge id=":C3_10" function="internal">
        <lane id=":C3_10_0" index="0" speed="13.89" length="20.80" shape="88.96,150.87 99.36,168.89"/>
    </edge>
    <edge id=":C3_11" function="internal">
        <lane id=":C3_11_0" index="0" speed="13.89" length="3.59" shape="88.96,150.87 90.09,154.28"/>
    </edge>
    <edge id=":C3_13" function="internal">
        <lane id=":C3_13_0" index="0" speed="13.89" length="17.66" shape="90.09,154.28 90.42,155.27 91.22,161.10 91.54,167.05 91.60,171.82"/>
    </edge>
    <edge id=":D1_0" function="internal">
        <lane id=":D1_0_0" index="0" speed="13.89" length="19.62" shape="334.86,261.41 330.57,262.27 325.67,264.35 320.91,266.90 316.99,269.17"/>
    </edge>
    <edge id=":D1_1" function="internal">
        <lane id=":D1_1_0" index="0" speed="13.89" length="20.80" shape="334.86,261.41 314.06,261.41"/>
    </edge>
    <edge id=":D1_2" function="internal">
        <lane id=":D1_2_0" index="0" speed="13.89" length="3.59" shape="334.86,261.41 331.34,260.69"/>
    </edge>
    <edge id=":D1_12" function="internal">
        <lane id=":D1_12_0" index="0" speed="13.89" length="17.66" shape="331.34,260.69 330.32,260.48 324.87,258.25 319.56,255.56 315.39,253.22"/>
    </edge>
    <edge id=":D1_3" function="internal">
        <lane id=":D1_3_0" index="0" speed="13.89" length="19.62" shape="316.99,250.45 320.91,252.72 325.67,255.27 330.57,257.35 334.86,258.21"/>
    </edge>
    <edge id=":D1_4" function="internal">
        <lane id=":D1_4_0" index="0" speed="9.00" length="25.54" shape="316.99,250.45 323.07,255.13 325.10,259.81 323.07,264.49 316.99,269.17"/>
    </edge>
    <edge id=":D1_5" function="internal">
        <lane id=":D1_5_0" index="0" speed="6.36" length="15.42" shape="316.99,250.45 319.72,253.49 319.94,257.11 317.94,260.14 314.06,261.41"/>
    </edge>
    <edge id=":D1_6" function="internal">
        <lane id=":D1_6_0" index="0" speed="5.53" length="11.20" shape="314.06,258.21 317.88,257.90 319.38,256.96 318.55,255.41 315.39,253.22"/>
    </edge>
    <edge id=":D1_7" function="internal">
        <lane id=":D1_7_0" index="0" speed="13.89" length="20.80" shape="314.06,258.21 334.86,258.21"/>
    </edge>
    <edge id=":D1_8" function="internal">
        <lane id=":D1_8_0" index="0" speed="6.36" length="2.40" shape="314.06,258.21 316.34,258.95"/>
    </edge>
    <edge id=":D1_13" function="internal">
        <lane id=":D1_13_0" index="0" speed="6.36" length="13.03" shape="316.34,258.95 317.94,259.48 319.93,262.51 319.72,266.13 316.99,269.17"/>
    </edge>
    <edge id=":D1_9" function="internal">
        <lane id=":D1_9_0" index="0" speed="5.53" length="11.20" shape="315.39,266.40 318.55,264.21 319.38,262.66 317.88,261.72 314.06,261.41"/>
    </edge>
    <edge id=":D1_10" function="internal">
        <lane id=":D1_10_0" index="0" speed="7.64" length="17.97" shape="315.39,266.40 319.67,263.10 321.10,259.81 319.67,256.52 315.39,253.22"/>
    </edge>
    <edge id=":D1_11" function="internal">
        <lane id=":D1_11_0" index="0" speed="13.89" length="21.25" shape="315.39,266.40 319.56,264.06 324.87,261.37 330.32,259.14 334.86,258.21"/>
    </edge>
    <edge id=":D2_0" function="internal">
        <lane id=":D2_0_0" index="0" speed="13.89" length="19.62" shape="74.61,409.10 70.69,411.36 66.10,414.21 61.85,417.41 58.96,420.70"/>
    </edge>
    <edge id=":D2_1" function="internal">
        <lane id=":D2_1_0" index="0" speed="9.00" length="25.54" shape="74.61,409.10 67.52,412.03 62.45,411.44 59.41,407.35 58.40,399.75"/>
    </edge>
    <edge id=":D2_2" function="internal">
        <lane id=":D2_2_0" index="0" speed="6.36" length="15.42" shape="74.61,409.10 70.61,409.95 67.37,408.32 65.74,405.08 66.59,401.08"/>
    </edge>
    <edge id=":D2_3" function="internal">
        <lane id=":D2_3_0" index="0" speed="5.53" length="11.20" shape="69.36,402.68 67.72,406.15 67.78,407.91 69.54,407.97 73.01,406.33"/>
    </edge>
    <edge id=":D2_4" function="internal">
        <lane id=":D2_4_0" index="0" speed="13.89" length="20.80" shape="69.36,402.68 58.96,420.70"/>
    </edge>
    <edge id=":D2_5" function="internal">
        <lane id=":D2_5_0" index="0" speed="6.36" length="2.40" shape="69.36,402.68 67.57,404.29"/>
    </edge>
    <edge id=":D2_12" function="internal">
        <lane id=":D2_12_0" index="0" speed="6.36" length="13.03" shape="67.57,404.29 66.32,405.41 62.70,405.63 59.67,403.63 58.40,399.75"/>
    </edge>
    <edge id=":D2_6" function="internal">
        <lane id=":D2_6_0" index="0" speed="5.53" length="11.20" shape="61.60,399.75 61.91,403.57 62.85,405.07 64.40,404.24 66.59,401.08"/>
    </edge>
    <edge id=":D2_7" function="internal">
        <lane id=":D2_7_0" index="0" speed="7.64" length="17.97" shape="61.60,399.75 62.31,405.10 64.45,407.98 68.02,408.39 73.01,406.33"/>
    </edge>
    <edge id=":D2_8" function="internal">
        <lane id=":D2_8_0" index="0" speed="13.89" length="21.25" shape="61.60,399.75 61.54,404.52 61.22,410.47 60.42,416.30 58.96,420.70"/>
    </edge>
    <edge id=":D2_9" function="internal">
        <lane id=":D2_9_0" index="0" speed="13.89" length="19.62" shape="56.19,419.10 57.59,414.95 58.23,409.67 58.41,404.27 58.40,399.75"/>
    </edge>
    <edge id=":D2_10" function="internal">
        <lane id=":D2_10_0" index="0" speed="13.89" length="20.80" shape="56.19,419.10 66.59,401.08"/>
    </edge>
    <edge id=":D2_11" function="internal">
        <lane id=":D2_11_0" index="0" speed="13.89" length="3.59" shape="56.19,419.10 58.57,416.41"/>
    </edge>
    <edge id=":D2_13" function="internal">
        <lane id=":D2_13_0" index="0" speed="13.89" length="17.66" shape="58.57,416.41 59.26,415.63 63.91,412.03 68.90,408.77 73.01,406.33"/>
    </edge>
    <edge id=":D3_0" function="internal">
        <lane id=":D3_0_0" index="0" speed="13.89" length="19.62" shape="58.40,119.86 58.41,115.34 58.23,109.94 57.59,104.66 56.19,100.51"/>
    </edge>
    <edge id=":D3_1" function="internal">
        <lane id=":D3_1_0" index="0" speed="9.00" length="25.54" shape="58.40,119.86 59.41,112.26 62.45,108.17 67.52,107.58 74.61,110.51"/>
    </edge>
    <edge id=":D3_2" function="internal">
        <lane id=":D3_2_0" index="0" speed="6.36" length="15.42" shape="58.40,119.86 59.67,115.98 62.70,113.98 66.32,114.20 69.36,116.93"/>
    </edge>
    <edge id=":D3_3" function="internal">
        <lane id=":D3_3_0" index="0" speed="5.53" length="11.20" shape="66.59,118.53 64.40,115.37 62.85,114.54 61.91,116.04 61.60,119.86"/>
    </edge>
    <edge id=":D3_4" function="internal">
        <lane id=":D3_4_0" index="0" speed="13.89" length="20.80" shape="66.59,118.53 56.19,100.51"/>
    </edge>
    <edge id=":D3_5" function="internal">
        <lane id=":D3_5_0" index="0" speed="6.36" length="2.40" shape="66.59,118.53 66.09,116.18"/>
    </edge>
    <edge id=":D3_12" function="internal">
        <lane id=":D3_12_0" index="0" speed="6.36" length="13.03" shape="66.09,116.18 65.74,114.53 67.37,111.29 70.61,109.66 74.61,110.51"/>
    </edge>
    <edge id=":D3_6" function="internal">
        <lane id=":D3_6_0" index="0" speed="5.53" length="11.20" shape="73.01,113.28 69.54,111.64 67.78,111.70 67.72,113.46 69.36,116.93"/>
    </edge>
    <edge id=":D3_7" function="internal">
        <lane id=":D3_7_0" index="0" speed="7.64" length="17.97" shape="73.01,113.28 68.02,111.22 64.45,111.63 62.31,114.51 61.60,119.86"/>
    </edge>
    <edge id=":D3_8" function="internal">
        <lane id=":D3_8_0" index="0" speed="13.89" length="21.25" shape="73.01,113.28 68.90,110.84 63.91,107.58 59.26,103.98 56.19,100.51"/>
    </edge>
    <edge id=":D3_9" function="internal">
        <lane id=":D3_9_0" index="0" speed="13.89" length="19.62" shape="58.96,98.91 61.85,102.20 66.10,105.40 70.69,108.25 74.61,110.51"/>
    </edge>
    <edge id=":D3_10" function="internal">
        <lane id=":D3_10_0" index="0" speed="13.89" length="20.80" shape="58.96,98.91 69.36,116.93"/>
    </edge>
    <edge id=":D3_11" function="internal">
        <lane id=":D3_11_0" index="0" speed="13.89" length="3.59" shape="58.96,98.91 60.09,102.32"/>
    </edge>
    <edge id=":D3_13" function="internal">
        <lane id=":D3_13_0" index="0" speed="13.89" length="17.66" shape="60.09,102.32 60.42,103.31 61.22,109.14 61.54,115.09 61.60,119.86"/>
    </edge>
    <edge id=":E1_0" function="internal">
        <lane id=":E1_0_0" index="0" speed="13.89" length="19.62" shape="394.86,261.41 390.57,262.27 385.67,264.35 380.91,266.90 376.99,269.17"/>
    </edge>
    <edge id=":E1_1" function="internal">
        <lane id=":E1_1_0" index="0" speed="13.89" length="20.80" shape="394.86,261.41 374.06,261.41"/>
    </edge>
    <edge id=":E1_2" function="internal">
        <lane id=":E1_2_0" index="0" speed="13.89" length="3.59" shape="394.86,261.41 391.34,260.69"/>
    </edge>
    <edge id=":E1_12" function="internal">
        <lane id=":E1_12_0" index="0" speed="13.89" length="17.66" shape="391.34,260.69 390.32,260.48 384.87,258.25 379.56,255.56 375.39,253.22"/>
    </edge>
    <edge id=":E1_3" function="internal">
        <lane id=":E1_3_0" index="0" speed="13.89" length="19.62" shape="376.99,250.45 380.91,252.72 385.67,255.27 390.57,257.35 394.86,258.21"/>
    </edge>
    <edge id=":E1_4" function="internal">
        <lane id=":E1_4_0" index="0" speed="9.00" length="25.54" shape="376.99,250.45 383.07,255.13 385.10,259.81 383.07,264.49 376.99,269.17"/>
    </edge>
    <edge id=":E1_5" function="internal">
        <lane id=":E1_5_0" index="0" speed="6.36" length="15.42" shape="376.99,250.45 379.72,253.49 379.94,257.11 377.94,260.14 374.06,261.41"/>
    </edge>
    <edge id=":E1_6" function="internal">
        <lane id=":E1_6_0" index="0" speed="5.53" length="11.20" shape="374.06,258.21 377.88,257.90 379.38,256.96 378.55,255.41 375.39,253.22"/>
    </edge>
    <edge id=":E1_7" function="internal">
        <lane id=":E1_7_0" index="0" speed="13.89" length="20.80" shape="374.06,258.21 394.86,258.21"/>
    </edge>
    <edge id=":E1_8" function="internal">
        <lane id=":E1_8_0" index="0" speed="6.36" length="2.40" shape="374.06,258.21 376.34,258.95"/>
    </edge>
    <edge id=":E1_13" function="internal">
        <lane id=":E1_13_0" index="0" speed="6.36" length="13.03" shape="376.34,258.95 377.94,259.48 379.93,262.51 379.72,266.13 376.99,269.17"/>
    </edge>
    <edge id=":E1_9" function="internal">
        <lane id=":E1_9_0" index="0" speed="5.53" length="11.20" shape="375.39,266.40 378.55,264.21 379.38,262.66 377.88,261.72 374.06,261.41"/>
    </edge>
    <edge id=":E1_10" function="internal">
        <lane id=":E1_10_0" index="0" speed="7.64" length="17.97" shape="375.39,266.40 379.67,263.10 381.10,259.81 379.67,256.52 375.39,253.22"/>
    </edge>
    <edge id=":E1_11" function="internal">
        <lane id=":E1_11_0" index="0" speed="13.89" length="21.25" shape="375.39,266.40 379.56,264.06 384.87,261.37 390.32,259.14 394.86,258.21"/>
    </edge>
    <edge id=":E2_0" function="internal">
        <lane id=":E2_0_0" index="0" speed="13.89" length="19.62" shape="44.61,461.06 40.69,463.32 36.10,466.17 31.85,469.37 28.96,472.66"/>
    </edge>
    <edge id=":E2_1" function="internal">
        <lane id=":E2_1_0" index="0" speed="9.00" length="25.54" shape="44.61,461.06 37.52,463.99 32.45,463.40 29.41,459.31 28.40,451.71"/>
    </edge>
    <edge id=":E2_2" function="internal">
        <lane id=":E2_2_0" index="0" speed="6.36" length="15.42" shape="44.61,461.06 40.61,461.91 37.37,460.28 35.74,457.04 36.59,453.04"/>
    </edge>
    <edge id=":E2_3" function="internal">
        <lane id=":E2_3_0" index="0" speed="5.53" length="11.20" shape="39.36,454.64 37.72,458.11 37.78,459.87 39.54,459.93 43.01,458.29"/>
    </edge>
    <edge id=":E2_4" function="internal">
        <lane id=":E2_4_0" index="0" speed="13.89" length="20.80" shape="39.36,454.64 28.96,472.66"/>
    </edge>
    <edge id=":E2_5" function="internal">
        <lane id=":E2_5_0" index="0" speed="6.36" length="2.40" shape="39.36,454.64 37.57,456.25"/>
    </edge>
    <edge id=":E2_12" function="internal">
        <lane id=":E2_12_0" index="0" speed="6.36" length="13.03" shape="37.57,456.25 36.32,457.37 32.70,457.59 29.67,455.59 28.40,451.71"/>
    </edge>
    <edge id=":E2_6" function="internal">
        <lane id=":E2_6_0" index="0" speed="5.53" length="11.20" shape="31.60,451.71 31.91,455.53 32.85,457.03 34.40,456.20 36.59,453.04"/>
    </edge>
    <edge id=":E2_7" function="internal">