<?xml version="1.0"?>
<routes>
    <vType id="car" length="4.5" width="1.8" maxSpeed="19.44" accel="4.0" decel="6.0"
           sigma="0.9" minGap="0.3" tau="0.3" lcStrategic="1.0" lcCooperative="0.0"
           lcSpeedGain="2.0" speedDev="0.3" impatience="0.9"/>
    <vType id="aggressive" length="4.5" width="1.8" maxSpeed="22.22" accel="5.0" decel="7.0"
           sigma="1.0" minGap="0.2" tau="0.2" lcStrategic="0.5" lcCooperative="0.0"
           lcSpeedGain="3.0" speedDev="0.4" impatience="1.0"/>
    <vehicle id="ego" type="car" depart="0" departSpeed="11" departLane="0">
        <route edges="B1A1 A1B2"/>
    </vehicle>
    <vehicle id="coop" type="car" depart="0" departSpeed="9" departLane="1">
        <route edges="B2A1 A1B1"/>
    </vehicle>
    <vehicle id="veh0" type="car" depart="0.9" departSpeed="16.3" departLane="1">
        <route edges="B2A1 A1B3"/>
    </vehicle>
    <vehicle id="veh1" type="aggressive" depart="1.6" departSpeed="17.9" departLane="1">
        <route edges="B3A1 A1B1"/>
    </vehicle>
    <vehicle id="veh2" type="aggressive" depart="0.8" departSpeed="17.2" departLane="0">
        <route edges="B1A1 A1B2"/>
    </vehicle>
    <vehicle id="veh3" type="aggressive" depart="1.8" departSpeed="10.3" departLane="0">
        <route edges="B2A1 A1B3"/>
    </vehicle>
    <vehicle id="veh4" type="aggressive" depart="0.1" departSpeed="10.1" departLane="1">
        <route edges="B3A1 A1B1"/>
    </vehicle>
    <vehicle id="veh5" type="car" depart="0.6" departSpeed="15.2" departLane="0">
        <route edges="B1A1 A1B3"/>
    </vehicle>
    <vehicle id="veh6" type="car" depart="0.3" departSpeed="12.0" departLane="0">
        <route edges="B2A1 A1B1"/>
    </vehicle>
    <vehicle id="veh7" type="aggressive" depart="2.0" departSpeed="13.2" departLane="1">
        <route edges="B2A1 A1B3"/>
    </vehicle>
    <vehicle id="veh8" type="car" depart="0.7" departSpeed="11.2" departLane="1">
        <route edges="B3A1 A1B2"/>
    </vehicle>
    <vehicle id="veh9" type="aggressive" depart="1.5" departSpeed="11.0" departLane="0">
        <route edges="B3A1 A1B1"/>
    </vehicle>
    <vehicle id="veh10" type="car" depart="1.6" departSpeed="12.0" departLane="1">
        <route edges="B1A1 A1B3"/>
    </vehicle>
</routes>