<?xml version="1.0" encoding="UTF-8"?>

<!-- generated on 2026-05-06T08:09:06.305780+00:00 by Eclipse SUMO netgenerate 1.26.0
<netgenerateConfiguration xmlns:xsi="http://www.w3.org/2001/XMLSchema-instance" xsi:noNamespaceSchemaLocation="http://sumo.dlr.de/xsd/netgenerateConfiguration.xsd">

    <spider_network>
        <spider value="true"/>
        <spider.arm-number value="3"/>
        <spider.space-radius value="80"/>
    </spider_network>

    <output>
        <output-file value="/raid/xuyifan/jiqiuyu/experiments/sumo_scenarios/networks/t_junction.net.xml"/>
    </output>

    <building_defaults>
        <default.speed value="13.89"/>
    </building_defaults>

    <junctions>
        <no-turnarounds value="true"/>
    </junctions>

</netgenerateConfiguration>
-->

<net version="1.20" junctionCornerDetail="5" limitTurnSpeed="5.50" xmlns:xsi="http://www.w3.org/2001/XMLSchema-instance" xsi:noNamespaceSchemaLocation="http://sumo.dlr.de/xsd/net_file.xsd">

    <location netOffset="200.00,346.41" convBoundary="0.00,0.00,600.00,692.82" origBoundary="-200.00,-346.41,400.00,346.41" projParameter="!"/>

    <edge id=":A1_0" function="internal">
        <lane id=":A1_0_0" index="0" speed="6.75" length="5.88" shape="204.16,348.01 202.64,348.19 201.33,348.71 200.22,349.59 199.31,350.81"/>
    </edge>
    <edge id=":A1_1" function="internal">
        <lane id=":A1_1_0" index="0" speed="8.24" length="9.07" shape="204.16,348.01 202.07,347.63 199.87,346.63 197.91,345.23 196.54,343.61"/>
    </edge>
    <edge id=":A1_2" function="internal">
        <lane id=":A1_2_0" index="0" speed="6.75" length="5.88" shape="199.31,342.01 200.22,343.23 201.33,344.11 202.64,344.63 204.16,344.81"/>
    </edge>
    <edge id=":A1_3" function="internal">
        <lane id=":A1_3_0" index="0" speed="8.24" length="9.07" shape="199.31,342.01 200.02,344.00 200.26,346.41 200.02,348.82 199.31,350.81"/>
    </edge>
    <edge id=":A1_4" function="internal">
        <lane id=":A1_4_0" index="0" speed="6.75" length="5.88" shape="196.54,349.21 197.14,347.81 197.34,346.41 197.14,345.01 196.54,343.61"/>
    </edge>
    <edge id=":A1_5" function="internal">
        <lane id=":A1_5_0" index="0" speed="8.24" length="9.07" shape="196.54,349.21 197.91,347.59 199.87,346.19 202.07,345.19 204.16,344.81"/>
    </edge>
    <edge id=":B1_0" function="internal">
        <lane id=":B1_0_0" index="0" speed="13.89" length="19.62" shape="284.86,348.01 280.57,348.87 275.67,350.95 270.91,353.50 266.99,355.77"/>
    </edge>
    <edge id=":B1_1" function="internal">
        <lane id=":B1_1_0" index="0" speed="13.89" length="20.80" shape="284.86,348.01 264.06,348.01"/>
    </edge>
    <edge id=":B1_2" function="internal">
        <lane id=":B1_2_0" index="0" speed="13.89" length="3.59" shape="284.86,348.01 281.34,347.29"/>
    </edge>
    <edge id=":B1_12" function="internal">
        <lane id=":B1_12_0" index="0" speed="13.89" length="17.66" shape="281.34,347.29 280.32,347.08 274.87,344.85 269.56,342.16 265.39,339.82"/>
    </edge>
    <edge id=":B1_3" function="internal">
        <lane id=":B1_3_0" index="0" speed="13.89" length="19.62" shape="266.99,337.05 270.91,339.32 275.67,341.87 280.57,343.95 284.86,344.81"/>
    </edge>
    <edge id=":B1_4" function="internal">
        <lane id=":B1_4_0" index="0" speed="9.00" length="25.54" shape="266.99,337.05 273.07,341.73 275.10,346.41 273.07,351.09 266.99,355.77"/>
    </edge>
    <edge id=":B1_5" function="internal">
        <lane id=":B1_5_0" index="0" speed="6.36" length="15.42" shape="266.99,337.05 269.72,340.09 269.93,343.71 267.94,346.74 264.06,348.01"/>
    </edge>
    <edge id=":B1_6" function="internal">
        <lane id=":B1_6_0" index="0" speed="5.53" length="11.20" shape="264.06,344.81 267.88,344.50 269.38,343.56 268.55,342.01 265.39,339.82"/>
    </edge>
    <edge id=":B1_7" function="internal">
        <lane id=":B1_7_0" index="0" speed="13.89" length="20.80" shape="264.06,344.81 284.86,344.81"/>
    </edge>
    <edge id=":B1_8" function="internal">
        <lane id=":B1_8_0" index="0" speed="6.36" length="2.40" shape="264.06,344.81 266.34,345.55"/>
    </edge>
    <edge id=":B1_13" function="internal">
        <lane id=":B1_13_0" index="0" speed="6.36" length="13.03" shape="266.34,345.55 267.94,346.08 269.93,349.11 269.72,352.73 266.99,355.77"/>
    </edge>
    <edge id=":B1_9" function="internal">
        <lane id=":B1_9_0" index="0" speed="5.53" length="11.20" shape="265.39,353.00 268.55,350.81 269.38,349.26 267.88,348.32 264.06,348.01"/>
    </edge>
    <edge id=":B1_10" function="internal">
        <lane id=":B1_10_0" index="0" speed="7.64" length="17.97" shape="265.39,353.00 269.67,349.70 271.10,346.41 269.67,343.12 265.39,339.82"/>
    </edge>
    <edge id=":B1_11" function="internal">
        <lane id=":B1_11_0" index="0" speed="13.89" length="21.25" shape="265.39,353.00 269.56,350.66 274.87,347.97 280.32,345.74 284.86,344.81"/>
    </edge>
    <edge id=":B2_0" function="internal">
        <lane id=":B2_0_0" index="0" speed="13.89" length="19.62" shape="174.61,409.10 170.69,411.36 166.10,414.21 161.85,417.41 158.96,420.70"/>
    </edge>
    <edge id=":B2_1" function="internal">
        <lane id=":B2_1_0" index="0" speed="9.00" length="25.54" shape="174.61,409.10 167.52,412.03 162.45,411.44 159.41,407.35 158.40,399.75"/>
    </edge>
    <edge id=":B2_2" function="internal">
        <lane id=":B2_2_0" index="0" speed="6.36" length="15.42" shape="174.61,409.10 170.61,409.95 167.37,408.32 165.74,405.08 166.59,401.08"/>
    </edge>
    <edge id=":B2_3" function="internal">
        <lane id=":B2_3_0" index="0" speed="5.53" length="11.20" shape="169.36,402.68 167.72,406.15 167.78,407.91 169.54,407.97 173.01,406.33"/>
    </edge>
    <edge id=":B2_4" function="internal">
        <lane id=":B2_4_0" index="0" speed="13.89" length="20.80" shape="169.36,402.68 158.96,420.70"/>
    </edge>
    <edge id=":B2_5" function="internal">
        <lane id=":B2_5_0" index="0" speed="6.36" length="2.40" shape="169.36,402.68 167.57,404.29"/>
    </edge>
    <edge id=":B2_12" function="internal">
        <lane id=":B2_12_0" index="0" speed="6.36" length="13.03" shape="167.57,404.29 166.32,405.41 162.70,405.63 159.67,403.63 158.40,399.75"/>
    </edge>
    <edge id=":B2_6" function="internal">
        <lane id=":B2_6_0" index="0" speed="5.53" length="11.20" shape="161.60,399.75 161.91,403.57 162.85,405.07 164.40,404.24 166.59,401.08"/>
    </edge>
    <edge id=":B2_7" function="internal">
        <lane id=":B2_7_0" index="0" speed="7.64" length="17.97" shape="161.60,399.75 162.31,405.10 164.45,407.98 168.02,408.39 173.01,406.33"/>
    </edge>
    <edge id=":B2_8" function="internal">
        <lane id=":B2_8_0" index="0" speed="13.89" length="21.25" shape="161.60,399.75 161.54,404.52 161.22,410.47 160.42,416.30 158.96,420.70"/>
    </edge>
    <edge id=":B2_9" function="internal">
        <lane id=":B2_9_0" index="0" speed="13.89" length="19.62" shape="156.19,419.10 157.59,414.95 158.23,409.67 158.41,404.27 158.40,399.75"/>
    </edge>
    <edge id=":B2_10" function="internal">
        <lane id=":B2_10_0" index="0" speed="13.89" length="20.80" shape="156.19,419.10 166.59,401.08"/>
    </edge>
    <edge id=":B2_11" function="internal">
        <lane id=":B2_11_0" index="0" speed="13.89" length="3.59" shape="156.19,419.10 158.57,416.41"/>
    </edge>
    <edge id=":B2_13" function="internal">
        <lane id=":B2_13_0" index="0" speed="13.89" length="17.66" shape="158.57,416.41 159.26,415.63 163.91,412.03 168.90,408.77 173.01,406.33"/>
    </edge>
    <edge id=":B3_0" function="internal">
        <lane id=":B3_0_0" index="0" speed="13.89" length="19.62" shape="158.40,293.07 158.41,288.55 158.23,283.15 157.59,277.87 156.19,273.72"/>
    </edge>
    <edge id=":B3_1" function="internal">
        <lane id=":B3_1_0" index="0" speed="9.00" length="25.54" shape="158.40,293.07 159.41,285.47 162.45,281.38 167.52,280.79 174.61,283.72"/>
    </edge>
    <edge id=":B3_2" function="internal">
        <lane id=":B3_2_0" index="0" speed="6.36" length="15.42" shape="158.40,293.07 159.67,289.19 162.70,287.19 166.32,287.41 169.36,290.14"/>
    </edge>
    <edge id=":B3_3" function="internal">
        <lane id=":B3_3_0" index="0" speed="5.53" length="11.20" shape="166.59,291.74 164.40,288.58 162.85,287.75 161.91,289.25 161.60,293.07"/>
    </edge>
    <edge id=":B3_4" function="internal">
        <lane id=":B3_4_0" index="0" speed="13.89" length="20.80" shape="166.59,291.74 156.19,273.72"/>
    </edge>
    <edge id=":B3_5" function="internal">
        <lane id=":B3_5_0" index="0" speed="6.36" length="2.40" shape="166.59,291.74 166.09,289.39"/>
    </edge>
    <edge id=":B3_12" function="internal">
        <lane id=":B3_12_0" index="0" speed="6.36" length="13.03" shape="166.09,289.39 165.74,287.74 167.37,284.50 170.61,282.87 174.61,283.72"/>
    </edge>
    <edge id=":B3_6" function="internal">
        <lane id=":B3_6_0" index="0" speed="5.53" length="11.20" shape="173.01,286.49 169.54,284.85 167.78,284.91 167.72,286.67 169.36,290.14"/>
    </edge>
    <edge id=":B3_7" function="internal">
        <lane id=":B3_7_0" index="0" speed="7.64" length="17.97" shape="173.01,286.49 168.02,284.43 164.45,284.84 162.31,287.72 161.60,293.07"/>
    </edge>
    <edge id=":B3_8" function="internal">
        <lane id=":B3_8_0" index="0" speed="13.89" length="21.25" shape="173.01,286.49 168.90,284.05 163.91,280.79 159.26,277.19 156.19,273.72"/>
    </edge>
    <edge id=":B3_9" function="internal">
        <lane id=":B3_9_0" index="0" speed="13.89" length="19.62" shape="158.96,272.12 161.85,275.41 166.10,278.61 170.69,281.46 174.61,283.72"/>
    </edge>
    <edge id=":B3_10" function="internal">
        <lane id=":B3_10_0" index="0" speed="13.89" length="20.80" shape="158.96,272.12 169.36,290.14"/>
    </edge>
    <edge id=":B3_11" function="internal">
        <lane id=":B3_11_0" index="0" speed="13.89" length="3.59" shape="158.96,272.12 160.09,275.53"/>
    </edge>
    <edge id=":B3_13" function="internal">
        <lane id=":B3_13_0" index="0" speed="13.89" length="17.66" shape="160.09,275.53 160.42,276.52 161.22,282.35 161.54,288.30 161.60,293.07"/>
    </edge>
    <edge id=":C1_0" function="internal">
        <lane id=":C1_0_0" index="0" speed="13.89" length="19.62" shape="364.86,348.01 360.57,348.87 355.67,350.95 350.91,353.50 346.99,355.77"/>
    </edge>
    <edge id=":C1_1" function="internal">
        <lane id=":C1_1_0" index="0" speed="13.89" length="20.80" shape="364.86,348.01 344.06,348.01"/>
    </edge>
    <edge id=":C1_2" function="internal">
        <lane id=":C1_2_0" index="0" speed="13.89" length="3.59" shape="364.86,348.01 361.34,347.29"/>
    </edge>
    <edge id=":C1_12" function="internal">
        <lane id=":C1_12_0" index="0" speed="13.89" length="17.66" shape="361.34,347.29 360.32,347.08 354.87,344.85 349.56,342.16 345.39,339.82"/>
    </edge>
    <edge id=":C1_3" function="internal">
        <lane id=":C1_3_0" index="0" speed="13.89" length="19.62" shape="346.99,337.05 350.91,339.32 355.67,341.87 360.57,343.95 364.86,344.81"/>
    </edge>
    <edge id=":C1_4" function="internal">
        <lane id=":C1_4_0" index="0" speed="9.00" length="25.54" shape="346.99,337.05 353.07,341.73 355.10,346.41 353.07,351.09 346.99,355.77"/>
    </edge>
    <edge id=":C1_5" function="internal">
        <lane id=":C1_5_0" index="0" speed="6.36" length="15.42" shape="346.99,337.05 349.72,340.09 349.93,343.71 347.94,346.74 344.06,348.01"/>
    </edge>
    <edge id=":C1_6" function="internal">
        <lane id=":C1_6_0" index="0" speed="5.53" length="11.20" shape="344.06,344.81 347.88,344.50 349.38,343.56 348.55,342.01 345.39,339.82"/>
    </edge>
    <edge id=":C1_7" function="internal">
        <lane id=":C1_7_0" index="0" speed="13.89" length="20.80" shape="344.06,344.81 364.86,344.81"/>
    </edge>
    <edge id=":C1_8" function="internal">
        <lane id=":C1_8_0" index="0" speed="6.36" length="2.40" shape="344.06,344.81 346.34,345.55"/>
    </edge>
    <edge id=":C1_13" function="internal">
        <lane id=":C1_13_0" index="0" speed="6.36" length="13.03" shape="346.34,345.55 347.94,346.08 349.93,349.11 349.72,352.73 346.99,355.77"/>
    </edge>
    <edge id=":C1_9" function="internal">
        <lane id=":C1_9_0" index="0" speed="5.53" length="11.20" shape="345.39,353.00 348.55,350.81 349.38,349.26 347.88,348.32 344.06,348.01"/>
    </edge>
    <edge id=":C1_10" function="internal">
        <lane id=":C1_10_0" index="0" speed="7.64" length="17.97" shape="345.39,353.00 349.67,349.70 351.10,346.41 349.67,343.12 345.39,339.82"/>
    </edge>
    <edge id=":C1_11" function="internal">
        <lane id=":C1_11_0" index="0" speed="13.89" length="21.25" shape="345.39,353.00 349.56,350.66 354.87,347.97 360.32,345.74 364.86,344.81"/>
    </edge>
    <edge id=":C2_0" function="internal">
        <lane id=":C2_0_0" index="0" speed="13.89" length="19.62" shape="134.61,478.38 130.69,480.64 126.10,483.49 121.85,486.69 118.96,489.98"/>
    </edge>
    <edge id=":C2_1" function="internal">
        <lane id=":C2_1_0" index="0" speed="9.00" length="25.54" shape="134.61,478.38 127.52,481.31 122.45,480.72 119.41,476.63 118.40,469.03"/>
    </edge>
    <edge id=":C2_2" function="internal">
        <lane id=":C2_2_0" index="0" speed="6.36" length="15.42" shape="134.61,478.38 130.61,479.23 127.37,477.60 125.74,474.36 126.59,470.36"/>
    </edge>
    <edge id=":C2_3" function="internal">
        <lane id=":C2_3_0" index="0" speed="5.53" length="11.20" shape="129.36,471.96 127.72,475.43 127.78,477.19 129.54,477.25 133.01,475.61"/>
    </edge>
    <edge id=":C2_4" function="internal">
        <lane id=":C2_4_0" index="0" speed="13.89" length="20.80" shape="129.36,471.96 118.96,489.98"/>
    </edge>
    <edge id=":C2_5" function="internal">
        <lane id=":C2_5_0" index="0" speed="6.36" length="2.40" shape="129.36,471.96 127.57,473.57"/>
    </edge>
    <edge id=":C2_12" function="internal">
        <lane id=":C2_12_0" index="0" speed="6.36" length="13.03" shape="127.57,473.57 126.32,474.69 122.70,474.91 119.67,472.91 118.40,469.03"/>
    </edge>
    <edge id=":C2_6" function="internal">
        <lane id=":C2_6_0" index="0" speed="5.53" length="11.20" shape="121.60,469.03 121.91,472.85 122.85,474.35 124.40,473.52 126.59,470.36"/>
    </edge>
    <edge id=":C2_7" function="internal">
        <lane id=":C2_7_0" index="0" speed="7.64" length="17.97" shape="121.60,469.03 122.31,474.38 124.45,477.26 128.02,477.67 133.01,475.61"/>
    </edge>
    <edge id=":C2_8" function="internal">
        <lane id=":C2_8_0" index="0" speed="13.89" length="21.25" shape="121.60,469.03 121.54,473.80 121.22,479.75 120.42,485.58 118.96,489.98"/>
    </edge>
    <edge id=":C2_9" function="internal">
        <lane id=":C2_9_0" index="0" speed="13.89" length="19.62" shape="116.19,488.38 117.59,484.23 118.23,478.95 118.41,473.55 118.40,469.03"/>
    </edge>
    <edge id=":C2_10" function="internal">
        <lane id=":C2_10_0" index="0" speed="13.89" length="20.80" shape="116.19,488.38 126.59,470.36"/>
    </edge>
    <edge id=":C2_11" function="internal">
        <lane id=":C2_11_0" index="0" speed="13.89" length="3.59" shape="116.19,488.38 118.57,485.69"/>
    </edge>
    <edge id=":C2_13" function="internal">
        <lane id=":C2_13_0" index="0" speed="13.89" length="17.66" shape="118.57,485.69 119.26,484.91 123.91,481.31 128.90,478.05 133.01,475.61"/>
    </edge>
    <edge id=":C3_0" function="internal">
        <lane id=":C3_0_0" index="0" speed="13.89" length="19.62" shape="118.40,223.79 118.41,219.27 118.23,213.87 117.59,208.59 116.19,204.44"/>
    </edge>
    <edge id=":C3_1" function="internal">
        <lane id=":C3_1_0" index="0" speed="9.00" length="25.54" shape="118.40,223.79 119.41,216.19 122.45,212.10 127.52,211.51 134.61,214.44"/>
    </edge>
    <edge id=":C3_2" function="internal">
        <lane id=":C3_2_0" index="0" speed="6.36" length="15.42" shape="118.40,223.79 119.67,219.91 122.70,217.91 126.32,218.13 129.36,220.86"/>
    </edge>
    <edge id=":C3_3" function="internal">
        <lane id=":C3_3_0" index="0" speed="5.53" length="11.20" shape="126.59,222.46 124.40,219.30 122.85,218.47 121.91,219.97 121.60,223.79"/>
    </edge>
    <edge id=":C3_4" function="internal">
        <lane id=":C3_4_0" index="0" speed="13.89" length="20.80" shape="126.59,222.46 116.19,204.44"/>
    </edge>
    <edge id=":C3_5" function="internal">
        <lane id=":C3_5_0" index="0" speed="6.36" length="2.40" shape="126.59,222.46 126.09,220.11"/>
    </edge>
    <edge id=":C3_12" function="internal">
        <lane id=":C3_12_0" index="0" speed="6.36" length="13.03" shape="126.09,220.11 125.74,218.46 127.37,215.22 130.61,213.59 134.61,214.44"/>
    </edge>
    <edge id=":C3_6" function="internal">
        <lane id=":C3_6_0" index="0" speed="5.53" length="11.20" shape="133.01,217.21 129.54,215.57 127.78,215.63 127.72,217.39 129.36,220.86"/>
    </edge>
    <edge id=":C3_7" function="internal">
        <lane id=":C3_7_0" index="0" speed="7.64" length="17.97" shape="133.01,217.21 128.02,215.15 124.45,215.56 122.31,218.44 121.60,223.79"/>
    </edge>
    <edge id=":C3_8" function="internal">
        <lane id=":C3_8_0" index="0" speed="13.89" length="21.25" shape="133.01,217.21 128.90,214.77 123.91,211.51 119.26,207.91 116.19,204.44"/>
    </edge>
    <edge id=":C3_9" function="internal">
        <lane id=":C3_9_0" index="0" speed="13.89" length="19.62" shape="118.96,202.84 121.85,206.13 126.10,209.33 130.69,212.18 134.61,214.44"/>
    </edge>
    <edge id=":C3_10" function="internal">
        <lane id=":C3_10_0" index="0" speed="13.89" length="20.80" shape="118.96,202.84 129.36,220.86"/>
    </edge>
    <edge id=":C3_11" function="internal">
        <lane id=":C3_11_0" index="0" speed="13.89" length="3.59" shape="118.96,202.84 120.09,206.25"/>
    </edge>
    <edge id=":C3_13" function="internal">
        <lane id=":C3_13_0" index="0" speed="13.89" length="17.66" shape="120.09,206.25 120.42,207.24 121.22,213.07 121.54,219.02 121.60,223.79"/>
    </edge>
    <edge id=":D1_0" function="internal">
        <lane id=":D1_0_0" index="0" speed="13.89" length="19.62" shape="444.86,348.01 440.57,348.87 435.67,350.95 430.91,353.50 426.99,355.77"/>
    </edge>
    <edge id=":D1_1" function="internal">
        <lane id=":D1_1_0" index="0" speed="13.89" length="20.80" shape="444.86,348.01 424.06,348.01"/>
    </edge>
    <edge id=":D1_2" function="internal">
        <lane id=":D1_2_0" index="0" speed="13.89" length="3.59" shape="444.86,348.01 441.34,347.29"/>
    </edge>
    <edge id=":D1_12" function="internal">
        <lane id=":D1_12_0" index="0" speed="13.89" length="17.66" shape="441.34,347.29 440.32,347.08 434.87,344.85 429.56,342.16 425.39,339.82"/>
    </edge>
    <edge id=":D1_3" function="internal">
        <lane id=":D1_3_0" index="0" speed="13.89" length="19.62" shape="426.99,337.05 430.91,339.32 435.67,341.87 440.57,343.95 444.86,344.81"/>
    </edge>
    <edge id=":D1_4" function="internal">
        <lane id=":D1_4_0" index="0" speed="9.00" length="25.54" shape="426.99,337.05 433.07,341.73 435.10,346.41 433.07,351.09 426.99,355.77"/>
    </edge>
    <edge id=":D1_5" function="internal">
        <lane id=":D1_5_0" index="0" speed="6.36" length="15.42" shape="426.99,337.05 429.72,340.09 429.94,343.71 427.94,346.74 424.06,348.01"/>
    </edge>
    <edge id=":D1_6" function="internal">
        <lane id=":D1_6_0" index="0" speed="5.53" length="11.20" shape="424.06,344.81 427.88,344.50 429.38,343.56 428.55,342.01 425.39,339.82"/>
    </edge>
    <edge id=":D1_7" function="internal">
        <lane id=":D1_7_0" index="0" speed="13.89" length="20.80" shape="424.06,344.81 444.86,344.81"/>
    </edge>
    <edge id=":D1_8" function="internal">
        <lane id=":D1_8_0" index="0" speed="6.36" length="2.40" shape="424.06,344.81 426.34,345.55"/>
    </edge>
    <edge id=":D1_13" function="internal">
        <lane id=":D1_13_0" index="0" speed="6.36" length="13.03" shape="426.34,345.55 427.94,346.08 429.94,349.11 429.72,352.73 426.99,355.77"/>
    </edge>
    <edge id=":D1_9" function="internal">
        <lane id=":D1_9_0" index="0" speed="5.53" length="11.20" shape="425.39,353.00 428.55,350.81 429.38,349.26 427.88,348.32 424.06,348.01"/>
    </edge>
    <edge id=":D1_10" function="internal">
        <lane id=":D1_10_0" index="0" speed="7.64" length="17.97" shape="425.39,353.00 429.67,349.70 431.10,346.41 429.67,343.12 425.39,339.82"/>
    </edge>
    <edge id=":D1_11" function="internal">
        <lane id=":D1_11_0" index="0" speed="13.89" length="21.25" shape="425.39,353.00 429.56,350.66 434.87,347.97 440.32,345.74 444.86,344.81"/>
    </edge>
    <edge id=":D2_0" function="internal">
        <lane id=":D2_0_0" index="0" speed="13.89" length="19.62" shape="94.61,547.67 90.69,549.93 86.10,552.78 81.85,555.98 78.96,559.27"/>
    </edge>
    <edge id=":D2_1" function="internal">
        <lane id=":D2_1_0" index="0" speed="9.00" length="25.54" shape="94.61,547.67 87.52,550.60 82.45,550.01 79.41,545.92 78.40,538.32"/>
    </edge>
    <edge id=":D2_2" function="internal">
        <lane id=":D2_2_0" index="0" speed="6.36" length="15.42" shape="94.61,547.67 90.61,548.52 87.37,546.89 85.74,543.65 86.59,539.65"/>
    </edge>
    <edge id=":D2_3" function="internal">
        <lane id=":D2_3_0" index="0" speed="5.53" length="11.20" shape="89.36,541.25 87.72,544.72 87.78,546.48 89.54,546.54 93.01,544.90"/>
    </edge>
    <edge id=":D2_4" function="internal">
        <lane id=":D2_4_0" index="0" speed="13.89" length="20.80" shape="89.36,541.25 78.96,559.27"/>
    </edge>
    <edge id=":D2_5" function="internal">
        <lane id=":D2_5_0" index="0" speed="6.36" length="2.40" shape="89.36,541.25 87.57,542.85"/>
    </edge>
    <edge id=":D2_12" function="internal">
        <lane id=":D2_12_0" index="0" speed="6.36" length="13.03" shape="87.57,542.85 86.32,543.98 82.70,544.19 79.67,542.20 78.40,538.32"/>
    </edge>
    <edge id=":D2_6" function="internal">
        <lane id=":D2_6_0" index="0" speed="5.53" length="11.20" shape="81.60,538.32 81.91,542.14 82.85,543.64 84.40,542.81 86.59,539.65"/>
    </edge>
    <edge id=":D2_7" function="internal">
        <lane id=":D2_7_0" index="0" speed="7.64" length="17.97" shape="81.60,538.32 82.31,543.67 84.45,546.55 88.02,546.96 93.01,544.90"/>
    </edge>
    <edge id=":D2_8" function="internal">
        <lane id=":D2_8_0" index="0" speed="13.89" length="21.25" shape="81.60,538.32 81.54,543.09 81.22,549.04 80.42,554.87 78.96,559.27"/>
    </edge>
    <edge id=":D2_9" function="internal">
        <lane id=":D2_9_0" index="0" speed="13.89" length="19.62" shape="76.19,557.67 77.59,553.52 78.23,548.24 78.41,542.84 78.40,538.32"/>
    </edge>
    <edge id=":D2_10" function="internal">
        <lane id=":D2_10_0" index="0" speed="13.89" length="20.80" shape="76.19,557.67 86.59,539.65"/>
    </edge>
    <edge id=":D2_11" function="internal">
        <lane id=":D2_11_0" index="0" speed="13.89" length="3.59" shape="76.19,557.67 78.57,554.98"/>
    </edge>
    <edge id=":D2_13" function="internal">
        <lane id=":D2_13_0" index="0" speed="13.89" length="17.66" shape="78.57,554.98 79.26,554.20 83.91,550.60 88.90,547.34 93.01,544.90"/>
    </edge>
    <edge id=":D3_0" function="internal">
        <lane id=":D3_0_0" index="0" speed="13.89" length="19.62" shape="78.40,154.50 78.41,149.98 78.23,144.58 77.59,139.30 76.19,135.15"/>
    </edge>
    <edge id=":D3_1" function="internal">
        <lane id=":D3_1_0" index="0" speed="9.00" length="25.54" shape="78.40,154.50 79.41,146.90 82.45,142.81 87.52,142.22 94.61,145.15"/>
    </edge>
    <edge id=":D3_2" function="internal">
        <lane id=":D3_2_0" index="0" speed="6.36" length="15.42" shape="78.40,154.50 79.67,150.62 82.70,148.63 86.32,148.84 89.36,151.57"/>
    </edge>
    <edge id=":D3_3" function="internal">
        <lane id=":D3_3_0" index="0" speed="5.53" length="11.20" shape="86.59,153.17 84.40,150.01 82.85,149.18 81.91,150.68 81.60,154.50"/>
    </edge>
    <edge id=":D3_4" function="internal">
        <lane id=":D3_4_0" index="0" speed="13.89" length="20.80" shape="86.59,153.17 76.19,135.15"/>
    </edge>
    <edge id=":D3_5" function="internal">
        <lane id=":D3_5_0" index="0" speed="6.36" length="2.40" shape="86.59,153.17 86.09,150.82"/>
    </edge>
    <edge id=":D3_12" function="internal">
        <lane id=":D3_12_0" index="0" speed="6.36" length="13.03" shape="86.09,150.82 85.74,149.17 87.37,145.93 90.61,144.30 94.61,145.15"/>
    </edge>
    <edge id=":D3_6" function="internal">
        <lane id=":D3_6_0" index="0" speed="5.53" length="11.20" shape="93.01,147.92 89.54,146.28 87.78,146.34 87.72,148.10 89.36,151.57"/>
    </edge>
    <edge id=":D3_7" function="internal">
        <lane id=":D3_7_0" index="0" speed="7.64" length="17.97" shape="93.01,147.92 88.02,145.86 84.45,146.27 82.31,149.15 81.60,154.50"/>
    </edge>
    <edge id=":D3_8" function="internal">
        <lane id=":D3_8_0" index="0" speed="13.89" length="21.25" shape="93.01,147.92 88.90,145.48 83.91,142.22 79.26,138.62 76.19,135.15"/>
    </edge>
    <edge id=":D3_9" function="internal">
        <lane id=":D3_9_0" index="0" speed="13.89" length="19.62" shape="78.96,133.55 81.85,136.84 86.10,140.04 90.69,142.89 94.61,145.15"/>
    </edge>
    <edge id=":D3_10" function="internal">
        <lane id=":D3_10_0" index="0" speed="13.89" length="20.80" shape="78.96,133.55 89.36,151.57"/>
    </edge>
    <edge id=":D3_11" function="internal">
        <lane id=":D3_11_0" index="0" speed="13.89" length="3.59" shape="78.96,133.55 80.09,136.96"/>
    </edge>
    <edge id=":D3_13" function="internal">
        <lane id=":D3_13_0" index="0" speed="13.89" length="17.66" shape="80.09,136.96 80.42,137.95 81.22,143.78 81.54,149.73 81.60,154.50"/>
    </edge>
    <edge id=":E1_0" function="internal">
        <lane id=":E1_0_0" index="0" speed="13.89" length="19.62" shape="524.86,348.01 520.57,348.87 515.67,350.95 510.91,353.50 506.99,355.77"/>
    </edge>
    <edge id=":E1_1" function="internal">
        <lane id=":E1_1_0" index="0" speed="13.89" length="20.80" shape="524.86,348.01 504.06,348.01"/>
    </edge>
    <edge id=":E1_2" function="internal">
        <lane id=":E1_2_0" index="0" speed="13.89" length="3.59" shape="524.86,348.01 521.34,347.29"/>
    </edge>
    <edge id=":E1_12" function="internal">
        <lane id=":E1_12_0" index="0" speed="13.89" length="17.66" shape="521.34,347.29 520.32,347.08 514.87,344.85 509.56,342.16 505.39,339.82"/>
    </edge>
    <edge id=":E1_3" function="internal">
        <lane id=":E1_3_0" index="0" speed="13.89" length="19.62" shape="506.99,337.05 510.91,339.32 515.67,341.87 520.57,343.95 524.86,344.81"/>
    </edge>
    <edge id=":E1_4" function="internal">
        <lane id=":E1_4_0" index="0" speed="9.00" length="25.54" shape="506.99,337.05 513.07,341.73 515.10,346.41 513.07,351.09 506.99,355.77"/>
    </edge>
    <edge id=":E1_5" function="internal">
        <lane id=":E1_5_0" index="0" speed="6.36" length="15.42" shape="506.99,337.05 509.72,340.09 509.94,343.71 507.94,346.74 504.06,348.01"/>
    </edge>
    <edge id=":E1_6" function="internal">
        <lane id=":E1_6_0" index="0" speed="5.53" length="11.20" shape="504.06,344.81 507.88,344.50 509.38,343.56 508.55,342.01 505.39,339.82"/>
    </edge>
    <edge id=":E1_7" function="internal">
        <lane id=":E1_7_0" index="0" speed="13.89" length="20.80" shape="504.06,344.81 524.86,344.81"/>
    </edge>
    <edge id=":E1_8" function="internal">
        <lane id=":E1_8_0" index="0" speed="6.36" length="2.40" shape="504.06,344.81 506.34,345.55"/>
    </edge>
    <edge id=":E1_13" function="internal">
        <lane id=":E1_13_0" index="0" speed="6.36" length="13.03" shape="506.34,345.55 507.94,346.08 509.94,349.11 509.72,352.73 506.99,355.77"/>
    </edge>
    <edge id=":E1_9" function="internal">
        <lane id=":E1_9_0" index="0" speed="5.53" length="11.20" shape="505.39,353.00 508.55,350.81 509.38,349.26 507.88,348.32 504.06,348.01"/>
    </edge>
    <edge id=":E1_10" function="internal">
        <lane id=":E1_10_0" index="0" speed="7.64" length="17.97" shape="505.39,353.00 509.67,349.70 511.10,346.41 509.67,343.12 505.39,339.82"/>
    </edge>
    <edge id=":E1_11" function="internal">
        <lane id=":E1_11_0" index="0" speed="13.89" length="21.25" shape="505.39,353.00 509.56,350.66 514.87,347.97 520.32,345.74 524.86,344.81"/>
    </edge>
    <edge id=":E2_0" function="internal">
        <lane id=":E2_0_0" index="0" speed="13.89" length="19.62" shape="54.61,616.95 50.69,619.21 46.10,622.06 41.85,625.26 38.96,628.55"/>
    </edge>
    <edge id=":E2_1" function="internal">
        <lane id=":E2_1_0" index="0" speed="9.00" length="25.54" shape="54.61,616.95 47.52,619.88 42.45,619.29 39.41,615.20 38.40,607.60"/>
    </edge>
    <edge id=":E2_2" function="internal">
        <lane id=":E2_2_0" index="0" speed="6.36" length="15.42" shape="54.61,616.95 50.61,617.80 47.37,616.17 45.74,612.93 46.59,608.93"/>
    </edge>
    <edge id=":E2_3" function="internal">
        <lane id=":E2_3_0" index="0" speed="5.53" length="11.20" shape="49.36,610.53 47.72,614.00 47.78,615.76 49.54,615.82 53.01,614.18"/>
    </edge>
    <edge id=":E2_4" function="internal">
        <lane id=":E2_4_0" index="0" speed="13.89" length="20.80" shape="49.36,610.53 38.96,628.55"/>
    </edge>
    <edge id=":E2_5" function="internal">
        <lane id=":E2_5_0" index="0" speed="6.36" length="2.40" shape="49.36,610.53 47.57,612.13"/>
    </edge>
    <edge id=":E2_12" function="internal">
        <lane id=":E2_12_0" index="0" speed="6.36" length="13.03" shape="47.57,612.13 46.32,613.26 42.70,613.48 39.67,611.48 38.40,607.60"/>
    </edge>
    <edge id=":E2_6" function="internal">
        <lane id=":E2_6_0" index="0" speed="5.53" length="11.20" shape="41.60,607.60 41.91,611.42 42.85,612.92 44.40,612.09 46.59,608.93"/>
    </edge>