<?xml version="1.0" encoding="UTF-8"?>

<!-- generated on 2026-05-08T08:00:24.321151+00:00 by Eclipse SUMO netgenerate 1.26.0
<netgenerateConfiguration xmlns:xsi="http://www.w3.org/2001/XMLSchema-instance" xsi:noNamespaceSchemaLocation="http://sumo.dlr.de/xsd/netgenerateConfiguration.xsd">

    <spider_network>
        <spider value="true"/>
        <spider.arm-number value="3"/>
        <spider.space-radius value="80"/>
    </spider_network>

    <output>
        <output-file value="/raid/xuyifan/jiqiuyu/experiments/sumo_scenarios/networks/t_junction_2lane.net.xml"/>
    </output>

    <building_defaults>
        <default.lanenumber value="2"/>
        <default.speed value="13.89"/>
    </building_defaults>

    <junctions>
        <no-turnarounds value="true"/>
    </junctions>

</netgenerateConfiguration>
-->

<net version="1.20" junctionCornerDetail="5" limitTurnSpeed="5.50" xmlns:xsi="http://www.w3.org/2001/XMLSchema-instance" xsi:noNamespaceSchemaLocation="http://sumo.dlr.de/xsd/net_file.xsd">

    <location netOffset="200.00,346.41" convBoundary="0.00,0.00,600.00,692.82" origBoundary="-200.00,-346.41,400.00,346.41" projParameter="!"/>

    <edge id=":A1_0" function="internal">
        <lane id=":A1_0_0" index="0" speed="6.75" length="5.88" shape="206.00,351.21 204.49,351.39 203.18,351.91 202.06,352.79 201.15,354.01"/>
        <lane id=":A1_0_1" index="1" speed="8.31" length="9.24" shape="206.00,348.01 203.62,348.29 201.56,349.11 199.81,350.49 198.38,352.41"/>
    </edge>
    <edge id=":A1_2" function="internal">
        <lane id=":A1_2_0" index="0" speed="9.54" length="12.37" shape="206.00,348.01 203.16,347.49 200.16,346.13 197.48,344.21 195.61,342.01"/>
    </edge>
    <edge id=":A1_3" function="internal">
        <lane id=":A1_3_0" index="0" speed="6.75" length="5.88" shape="201.15,338.81 202.06,340.03 203.18,340.91 204.49,341.43 206.00,341.61"/>
        <lane id=":A1_3_1" index="1" speed="8.31" length="9.24" shape="198.38,340.41 199.81,342.33 201.56,343.71 203.62,344.53 206.00,344.81"/>
    </edge>
    <edge id=":A1_5" function="internal">
        <lane id=":A1_5_0" index="0" speed="9.54" length="12.37" shape="198.38,340.41 199.36,343.13 199.68,346.41 199.36,349.69 198.38,352.41"/>
    </edge>
    <edge id=":A1_6" function="internal">
        <lane id=":A1_6_0" index="0" speed="6.75" length="5.88" shape="192.84,349.21 193.45,347.81 193.65,346.41 193.45,345.01 192.84,343.61"/>
    </edge>
    <edge id=":A1_7" function="internal">
        <lane id=":A1_7_0" index="0" speed="10.68" length="15.67" shape="192.84,349.21 195.21,346.42 198.60,343.99 202.41,342.26 206.00,341.61"/>
        <lane id=":A1_7_1" index="1" speed="9.54" length="12.37" shape="195.61,350.81 197.48,348.61 200.16,346.69 203.16,345.33 206.00,344.81"/>
    </edge>
    <edge id=":B1_0" function="internal">
        <lane id=":B1_0_0" index="0" speed="13.89" length="30.89" shape="285.71,351.21 278.42,352.58 271.48,355.98 264.79,360.32 258.25,364.51"/>
    </edge>
    <edge id=":B1_1" function="internal">
        <lane id=":B1_1_0" index="0" speed="13.89" length="33.60" shape="285.71,351.21 252.11,351.21"/>
        <lane id=":B1_1_1" index="1" speed="13.89" length="33.60" shape="285.71,348.01 252.11,348.01"/>
    </edge>
    <edge id=":B1_3" function="internal">
        <lane id=":B1_3_0" index="0" speed="13.89" length="3.77" shape="285.71,348.01 282.02,347.29"/>
    </edge>
    <edge id=":B1_16" function="internal">
        <lane id=":B1_16_0" index="0" speed="13.89" length="30.34" shape="282.02,347.29 277.92,346.50 269.88,342.81 262.09,338.17 255.05,333.85"/>
    </edge>
    <edge id=":B1_4" function="internal">
        <lane id=":B1_4_0" index="0" speed="13.89" length="31.69" shape="258.25,328.31 264.79,332.50 271.48,336.84 278.42,340.24 285.71,341.61"/>
        <lane id=":B1_4_1" index="1" speed="13.89" length="31.69" shape="256.65,331.08 263.44,335.34 270.68,339.82 278.17,343.37 285.71,344.81"/>
    </edge>
    <edge id=":B1_6" function="internal">
        <lane id=":B1_6_0" index="0" speed="11.04" length="39.15" shape="256.65,331.08 264.95,338.27 267.71,346.41 264.95,354.55 256.65,361.74"/>
    </edge>
    <edge id=":B1_7" function="internal">
        <lane id=":B1_7_0" index="0" speed="7.75" length="23.83" shape="256.65,331.08 260.87,335.78 261.20,341.37 258.12,346.05 252.11,348.01"/>
    </edge>
    <edge id=":B1_8" function="internal">
        <lane id=":B1_8_0" index="0" speed="5.53" length="11.20" shape="252.11,341.61 255.94,341.30 257.43,340.36 256.60,338.81 253.45,336.62"/>
    </edge>
    <edge id=":B1_9" function="internal">
        <lane id=":B1_9_0" index="0" speed="13.89" length="33.60" shape="252.11,341.61 285.71,341.61"/>
        <lane id=":B1_9_1" index="1" speed="13.89" length="33.60" shape="252.11,344.81 285.71,344.81"/>
    </edge>
    <edge id=":B1_11" function="internal">
        <lane id=":B1_11_0" index="0" speed="7.75" length="2.40" shape="252.11,344.81 254.39,345.55"/>
    </edge>
    <edge id=":B1_17" function="internal">
        <lane id=":B1_17_0" index="0" speed="7.75" length="21.43" shape="254.39,345.55 258.12,346.77 261.20,351.45 260.87,357.04 256.65,361.74"/>
    </edge>
    <edge id=":B1_12" function="internal">
        <lane id=":B1_12_0" index="0" speed="5.53" length="11.20" shape="253.45,356.20 256.60,354.01 257.43,352.46 255.94,351.52 252.11,351.21"/>
    </edge>
    <edge id=":B1_13" function="internal">
        <lane id=":B1_13_0" index="0" speed="9.80" length="30.51" shape="253.45,356.20 261.11,350.44 263.92,344.79 261.91,339.27 255.05,333.85"/>
    </edge>
    <edge id=":B1_14" function="internal">
        <lane id=":B1_14_0" index="0" speed="13.89" length="34.92" shape="253.45,356.20 260.74,351.81 269.08,347.03 277.67,343.19 285.71,341.61"/>
        <lane id=":B1_14_1" index="1" speed="13.89" length="34.92" shape="255.05,358.97 262.09,354.65 269.88,350.01 277.92,346.32 285.71,344.81"/>
    </edge>
    <edge id=":B2_0" function="internal">
        <lane id=":B2_0_0" index="0" speed="13.89" length="31.69" shape="186.55,405.90 179.65,409.47 172.55,413.10 166.14,417.41 161.30,423.04"/>
        <lane id=":B2_0_1" index="1" speed="13.89" length="31.69" shape="184.95,403.13 177.87,406.89 170.37,410.91 163.55,415.63 158.53,421.44"/>
    </edge>
    <edge id=":B2_2" function="internal">
        <lane id=":B2_2_0" index="0" speed="11.04" length="39.15" shape="184.95,403.13 174.58,406.73 166.14,405.05 160.47,398.58 158.40,387.81"/>
    </edge>
    <edge id=":B2_3" function="internal">
        <lane id=":B2_3_0" index="0" speed="7.75" length="23.83" shape="184.95,403.13 178.77,404.44 173.77,401.92 171.25,396.92 172.56,390.74"/>
    </edge>
    <edge id=":B2_4" function="internal">
        <lane id=":B2_4_0" index="0" speed="5.53" length="11.20" shape="178.10,393.94 176.46,397.41 176.52,399.17 178.28,399.23 181.75,397.59"/>
    </edge>
    <edge id=":B2_5" function="internal">
        <lane id=":B2_5_0" index="0" speed="13.89" length="33.60" shape="178.10,393.94 161.30,423.04"/>
        <lane id=":B2_5_1" index="1" speed="13.89" length="33.60" shape="175.33,392.34 158.53,421.44"/>
    </edge>
    <edge id=":B2_7" function="internal">
        <lane id=":B2_7_0" index="0" speed="7.75" length="2.40" shape="175.33,392.34 173.54,393.94"/>
    </edge>
    <edge id=":B2_16" function="internal">
        <lane id=":B2_16_0" index="0" speed="7.75" length="21.43" shape="173.54,393.94 170.63,396.56 165.04,396.89 160.36,393.81 158.40,387.81"/>
    </edge>
    <edge id=":B2_8" function="internal">
        <lane id=":B2_8_0" index="0" speed="5.53" length="11.20" shape="164.80,387.81 165.11,391.63 166.05,393.12 167.60,392.30 169.79,389.14"/>
    </edge>
    <edge id=":B2_9" function="internal">
        <lane id=":B2_9_0" index="0" speed="9.80" length="30.51" shape="164.80,387.81 165.96,397.31 169.44,402.58 175.23,403.59 183.35,400.36"/>
    </edge>
    <edge id=":B2_10" function="internal">
        <lane id=":B2_10_0" index="0" speed="13.89" length="34.92" shape="164.80,387.81 164.96,396.31 164.92,405.92 163.96,415.29 161.30,423.04"/>
        <lane id=":B2_10_1" index="1" speed="13.89" length="34.92" shape="161.60,387.81 161.82,396.06 161.94,405.12 161.12,413.94 158.53,421.44"/>
    </edge>
    <edge id=":B2_12" function="internal">
        <lane id=":B2_12_0" index="0" speed="13.89" length="30.89" shape="152.99,418.24 155.44,411.24 155.97,403.52 155.56,395.56 155.20,387.81"/>
    </edge>
    <edge id=":B2_13" function="internal">
        <lane id=":B2_13_0" index="0" speed="13.89" length="33.60" shape="152.99,418.24 169.79,389.14"/>
        <lane id=":B2_13_1" index="1" speed="13.89" length="33.60" shape="155.76,419.84 172.56,390.74"/>
    </edge>
    <edge id=":B2_15" function="internal">
        <lane id=":B2_15_0" index="0" speed="13.89" length="3.77" shape="155.76,419.84 158.23,416.99"/>
    </edge>
    <edge id=":B2_17" function="internal">
        <lane id=":B2_17_0" index="0" speed="13.89" length="30.34" shape="158.23,416.99 160.96,413.85 168.18,408.73 176.09,404.30 183.35,400.36"/>
    </edge>
    <edge id=":B3_0" function="internal">
        <lane id=":B3_0_0" index="0" speed="13.89" length="31.69" shape="155.20,305.01 155.56,297.26 155.97,289.30 155.44,281.58 152.99,274.58"/>
        <lane id=":B3_0_1" index="1" speed="13.89" length="31.69" shape="158.40,305.01 158.69,297.01 158.95,288.50 158.28,280.23 155.76,272.98"/>
    </edge>
    <edge id=":B3_2" function="internal">
        <lane id=":B3_2_0" index="0" speed="11.04" length="39.15" shape="158.40,305.01 160.47,294.24 166.14,287.77 174.58,286.09 184.95,289.69"/>
    </edge>
    <edge id=":B3_3" function="internal">
        <lane id=":B3_3_0" index="0" speed="7.75" length="23.83" shape="158.40,305.01 160.36,299.01 165.04,295.93 170.63,296.26 175.33,300.48"/>
    </edge>
    <edge id=":B3_4" function="internal">
        <lane id=":B3_4_0" index="0" speed="5.53" length="11.20" shape="169.79,303.68 167.60,300.52 166.05,299.70 165.11,301.19 164.80,305.01"/>
    </edge>
    <edge id=":B3_5" function="internal">
        <lane id=":B3_5_0" index="0" speed="13.89" length="33.60" shape="169.79,303.68 152.99,274.58"/>
        <lane id=":B3_5_1" index="1" speed="13.89" length="33.60" shape="172.56,302.08 155.76,272.98"/>
    </edge>
    <edge id=":B3_7" function="internal">
        <lane id=":B3_7_0" index="0" speed="7.75" length="2.40" shape="172.56,302.08 172.06,299.73"/>
    </edge>
    <edge id=":B3_16" function="internal">
        <lane id=":B3_16_0" index="0" speed="7.75" length="21.43" shape="172.06,299.73 171.25,295.90 173.77,290.90 178.77,288.38 184.95,289.69"/>
    </edge>
    <edge id=":B3_8" function="internal">
        <lane id=":B3_8_0" index="0" speed="5.53" length="11.20" shape="181.75,295.23 178.28,293.59 176.52,293.65 176.46,295.41 178.10,298.88"/>
    </edge>
    <edge id=":B3_9" function="internal">
        <lane id=":B3_9_0" index="0" speed="9.80" length="30.51" shape="181.75,295.23 172.93,291.48 166.64,291.86 162.86,296.37 161.60,305.01"/>
    </edge>
    <edge id=":B3_10" function="internal">
        <lane id=":B3_10_0" index="0" speed="13.89" length="34.92" shape="181.75,295.23 174.30,291.11 165.99,286.28 158.37,280.76 152.99,274.58"/>
        <lane id=":B3_10_1" index="1" speed="13.89" length="34.92" shape="183.35,292.46 176.09,288.52 168.18,284.09 160.96,278.97 155.76,272.98"/>
    </edge>
    <edge id=":B3_12" function="internal">
        <lane id=":B3_12_0" index="0" speed="13.89" length="30.89" shape="161.30,269.78 166.14,275.41 172.55,279.72 179.65,283.35 186.55,286.92"/>
    </edge>
    <edge id=":B3_13" function="internal">
        <lane id=":B3_13_0" index="0" speed="13.89" length="33.60" shape="161.30,269.78 178.10,298.88"/>
        <lane id=":B3_13_1" index="1" speed="13.89" length="33.60" shape="158.53,271.38 175.33,300.48"/>
    </edge>
    <edge id=":B3_15" function="internal">
        <lane id=":B3_15_0" index="0" speed="13.89" length="3.77" shape="158.53,271.38 159.76,274.94"/>
    </edge>
    <edge id=":B3_17" function="internal">
        <lane id=":B3_17_0" index="0" speed="13.89" length="30.34" shape="159.76,274.94 161.12,278.88 161.94,287.70 161.82,296.76 161.60,305.01"/>
    </edge>
    <edge id=":C1_0" function="internal">
        <lane id=":C1_0_0" index="0" speed="13.89" length="30.89" shape="365.71,351.21 358.42,352.58 351.48,355.98 344.79,360.32 338.25,364.51"/>
    </edge>
    <edge id=":C1_1" function="internal">
        <lane id=":C1_1_0" index="0" speed="13.89" length="33.60" shape="365.71,351.21 332.11,351.21"/>
        <lane id=":C1_1_1" index="1" speed="13.89" length="33.60" shape="365.71,348.01 332.11,348.01"/>
    </edge>
    <edge id=":C1_3" function="internal">
        <lane id=":C1_3_0" index="0" speed="13.89" length="3.77" shape="365.71,348.01 362.02,347.29"/>
    </edge>
    <edge id=":C1_16" function="internal">
        <lane id=":C1_16_0" index="0" speed="13.89" length="30.34" shape="362.02,347.29 357.92,346.50 349.88,342.81 342.09,338.17 335.05,333.85"/>
    </edge>
    <edge id=":C1_4" function="internal">
        <lane id=":C1_4_0" index="0" speed="13.89" length="31.69" shape="338.25,328.31 344.79,332.50 351.48,336.84 358.42,340.24 365.71,341.61"/>
        <lane id=":C1_4_1" index="1" speed="13.89" length="31.69" shape="336.65,331.08 343.44,335.34 350.68,339.82 358.17,343.37 365.71,344.81"/>
    </edge>
    <edge id=":C1_6" function="internal">
        <lane id=":C1_6_0" index="0" speed="11.04" length="39.15" shape="336.65,331.08 344.95,338.27 347.71,346.41 344.95,354.55 336.65,361.74"/>
    </edge>
    <edge id=":C1_7" function="internal">
        <lane id=":C1_7_0" index="0" speed="7.75" length="23.83" shape="336.65,331.08 340.87,335.78 341.20,341.37 338.12,346.05 332.11,348.01"/>
    </edge>
    <edge id=":C1_8" function="internal">
        <lane id=":C1_8_0" index="0" speed="5.53" length="11.20" shape="332.11,341.61 335.94,341.30 337.43,340.36 336.60,338.81 333.45,336.62"/>
    </edge>
    <edge id=":C1_9" function="internal">
        <lane id=":C1_9_0" index="0" speed="13.89" length="33.60" shape="332.11,341.61 365.71,341.61"/>
        <lane id=":C1_9_1" index="1" speed="13.89" length="33.60" shape="332.11,344.81 365.71,344.81"/>
    </edge>
    <edge id=":C1_11" function="internal">
        <lane id=":C1_11_0" index="0" speed="7.75" length="2.40" shape="332.11,344.81 334.39,345.55"/>
    </edge>
    <edge id=":C1_17" function="internal">
        <lane id=":C1_17_0" index="0" speed="7.75" length="21.43" shape="334.39,345.55 338.12,346.77 341.20,351.45 340.87,357.04 336.65,361.74"/>
    </edge>
    <edge id=":C1_12" function="internal">
        <lane id=":C1_12_0" index="0" speed="5.53" length="11.20" shape="333.45,356.20 336.60,354.01 337.43,352.46 335.94,351.52 332.11,351.21"/>
    </edge>
    <edge id=":C1_13" function="internal">
        <lane id=":C1_13_0" index="0" speed="9.80" length="30.51" shape="333.45,356.20 341.11,350.44 343.92,344.79 341.91,339.27 335.05,333.85"/>
    </edge>
    <edge id=":C1_14" function="internal">
        <lane id=":C1_14_0" index="0" speed="13.89" length="34.92" shape="333.45,356.20 340.74,351.81 349.08,347.03 357.67,343.19 365.71,341.61"/>
        <lane id=":C1_14_1" index="1" speed="13.89" length="34.92" shape="335.05,358.97 342.09,354.65 349.88,350.01 357.92,346.32 365.71,344.81"/>
    </edge>
    <edge id=":C2_0" function="internal">
        <lane id=":C2_0_0" index="0" speed="13.89" length="31.69" shape="146.55,475.18 139.65,478.75 132.55,482.38 126.14,486.69 121.30,492.32"/>
        <lane id=":C2_0_1" index="1" speed="13.89" length="31.69" shape="144.95,472.41 137.87,476.17 130.37,480.19 123.55,484.91 118.53,490.72"/>
    </edge>
    <edge id=":C2_2" function="internal">
        <lane id=":C2_2_0" index="0" speed="11.04" length="39.15" shape="144.95,472.41 134.58,476.01 126.14,474.33 120.47,467.86 118.40,457.09"/>
    </edge>
    <edge id=":C2_3" function="internal">
        <lane id=":C2_3_0" index="0" speed="7.75" length="23.83" shape="144.95,472.41 138.77,473.72 133.77,471.20 131.25,466.20 132.56,460.02"/>
    </edge>
    <edge id=":C2_4" function="internal">
        <lane id=":C2_4_0" index="0" speed="5.53" length="11.20" shape="138.10,463.22 136.46,466.69 136.52,468.45 138.28,468.51 141.75,466.87"/>
    </edge>
    <edge id=":C2_5" function="internal">
        <lane id=":C2_5_0" index="0" speed="13.89" length="33.60" shape="138.10,463.22 121.30,492.32"/>
        <lane id=":C2_5_1" index="1" speed="13.89" length="33.60" shape="135.33,461.62 118.53,490.72"/>
    </edge>
    <edge id=":C2_7" function="internal">
        <lane id=":C2_7_0" index="0" speed="7.75" length="2.40" shape="135.33,461.62 133.54,463.22"/>
    </edge>
    <edge id=":C2_16" function="internal">
        <lane id=":C2_16_0" index="0" speed="7.75" length="21.43" shape="133.54,463.22 130.63,465.84 125.04,466.17 120.36,463.09 118.40,457.09"/>
    </edge>
    <edge id=":C2_8" function="internal">
        <lane id=":C2_8_0" index="0" speed="5.53" length="11.20" shape="124.80,457.09 125.11,460.91 126.05,462.40 127.60,461.58 129.79,458.42"/>
    </edge>
    <edge id=":C2_9" function="internal">
        <lane id=":C2_9_0" index="0" speed="9.80" length="30.51" shape="124.80,457.09 125.96,466.59 129.44,471.86 135.23,472.87 143.35,469.64"/>
    </edge>
    <edge id=":C2_10" function="internal">
        <lane id=":C2_10_0" index="0" speed="13.89" length="34.92" shape="124.80,457.09 124.96,465.59 124.92,475.20 123.96,484.57 121.30,492.32"/>
        <lane id=":C2_10_1" index="1" speed="13.89" length="34.92" shape="121.60,457.09 121.82,465.34 121.94,474.40 121.12,483.22 118.53,490.72"/>
    </edge>
    <edge id=":C2_12" function="internal">
        <lane id=":C2_12_0" index="0" speed="13.89" length="30.89" shape="112.99,487.52 115.44,480.52 115.97,472.80 115.56,464.84 115.20,457.09"/>
    </edge>
    <edge id=":C2_13" function="internal">
        <lane id=":C2_13_0" index="0" speed="13.89" length="33.60" shape="112.99,487.52 129.79,458.42"/>
        <lane id=":C2_13_1" index="1" speed="13.89" length="33.60" shape="115.76,489.12 132.56,460.02"/>
    </edge>
    <edge id=":C2_15" function="internal">
        <lane id=":C2_15_0" index="0" speed="13.89" length="3.77" shape="115.76,489.12 118.23,486.27"/>
    </edge>
    <edge id=":C2_17" function="internal">
        <lane id=":C2_17_0" index="0" speed="13.89" length="30.34" shape="118.23,486.27 120.96,483.13 128.18,478.01 136.09,473.58 143.35,469.64"/>
    </edge>
    <edge id=":C3_0" function="internal">
        <lane id=":C3_0_0" index="0" speed="13.89" length="31.69" shape="115.20,235.73 115.56,227.98 115.97,220.02 115.44,212.30 112.99,205.30"/>
        <lane id=":C3_0_1" index="1" speed="13.89" length="31.69" shape="118.40,235.73 118.69,227.73 118.95,219.22 118.28,210.95 115.76,203.70"/>
    </edge>
    <edge id=":C3_2" function="internal">
        <lane id=":C3_2_0" index="0" speed="11.04" length="39.15" shape="118.40,235.73 120.47,224.96 126.14,218.49 134.58,216.81 144.95,220.41"/>
    </edge>
    <edge id=":C3_3" function="internal">
        <lane id=":C3_3_0" index="0" speed="7.75" length="23.83" shape="118.40,235.73 120.36,229.73 125.04,226.65 130.63,226.98 135.33,231.20"/>
    </edge>
    <edge id=":C3_4" function="internal">
        <lane id=":C3_4_0" index="0" speed="5.53" length="11.20" shape="129.79,234.40 127.60,231.24 126.05,230.42 125.11,231.91 124.80,235.73"/>
    </edge>
    <edge id=":C3_5" function="internal">
        <lane id=":C3_5_0" index="0" speed="13.89" length="33.60" shape="129.79,234.40 112.99,205.30"/>
        <lane id=":C3_5_1" index="1" speed="13.89" length="33.60" shape="132.56,232.80 115.76,203.70"/>
    </edge>
    <edge id=":C3_7" function="internal">
        <lane id=":C3_7_0" index="0" speed="7.75" length="2.40" shape="132.56,232.80 132.06,230.45"/>
    </edge>
    <edge id=":C3_16" function="internal">
        <lane id=":C3_16_0" index="0" speed="7.75" length="21.43" shape="132.06,230.45 131.25,226.62 133.77,221.62 138.77,219.10 144.95,220.41"/>
    </edge>
    <edge id=":C3_8" function="internal">
        <lane id=":C3_8_0" index="0" speed="5.53" length="11.20" shape="141.75,225.95 138.28,224.31 136.52,224.37 136.46,226.13 138.10,229.60"/>
    </edge>
    <edge id=":C3_9" function="internal">
        <lane id=":C3_9_0" index="0" speed="9.80" length="30.51" shape="141.75,225.95 132.93,222.20 126.64,222.58 122.86,227.09 121.60,235.73"/>
    </edge>
    <edge id=":C3_10" function="internal">
        <lane id=":C3_10_0" index="0" speed="13.89" length="34.92" shape="141.75,225.95 134.30,221.83 125.99,217.00 118.37,211.48 112.99,205.30"/>
        <lane id=":C3_10_1" index="1" speed="13.89" length="34.92" shape="143.35,223.18 136.09,219.24 128.18,214.81 120.96,209.69 115.76,203.70"/>
    </edge>
    <edge id=":C3_12" function="internal">
        <lane id=":C3_12_0" index="0" speed="13.89" length="30.89" shape="121.30,200.50 126.14,206.13 132.55,210.44 139.65,214.07 146.55,217.64"/>
    </edge>
    <edge id=":C3_13" function="internal">
        <lane id=":C3_13_0" index="0" speed="13.89" length="33.60" shape="121.30,200.50 138.10,229.60"/>
        <lane id=":C3_13_1" index="1" speed="13.89" length="33.60" shape="118.53,202.10 135.33,231.20"/>
    </edge>
    <edge id=":C3_15" function="internal">
        <lane id=":C3_15_0" index="0" speed="13.89" length="3.77" shape="118.53,202.10 119.76,205.66"/>
    </edge>
    <edge id=":C3_17" function="internal">
        <lane id=":C3_17_0" index="0" speed="13.89" length="30.34" shape="119.76,205.66 121.12,209.60 121.94,218.42 121.82,227.48 121.60,235.73"/>
    </edge>
    <edge id=":D1_0" function="internal">
        <lane id=":D1_0_0" index="0" speed="13.89" length="30.89" shape="445.71,351.21 438.42,352.58 431.48,355.98 424.79,360.32 418.25,364.51"/>
    </edge>
    <edge id=":D1_1" function="internal">
        <lane id=":D1_1_0" index="0" speed="13.89" length="33.60" shape="445.71,351.21 412.12,351.21"/>
        <lane id=":D1_1_1" index="1" speed="13.89" length="33.60" shape="445.71,348.01 412.12,348.01"/>
    </edge>
    <edge id=":D1_3" function="internal">
        <lane id=":D1_3_0" index="0" speed="13.89" length="3.77" shape="445.71,348.01 442.02,347.29"/>
    </edge>
    <edge id=":D1_16" function="internal">
        <lane id=":D1_16_0" index="0" speed="13.89" length="30.34" shape="442.02,347.29 437.92,346.50 429.88,342.81 422.09,338.17 415.05,333.85"/>
    </edge>
    <edge id=":D1_4" function="internal">
        <lane id=":D1_4_0" index="0" speed="13.89" length="31.69" shape="418.25,328.31 424.79,332.50 431.48,336.84 438.42,340.24 445.71,341.61"/>
        <lane id=":D1_4_1" index="1" speed="13.89" length="31.69" shape="416.65,331.08 423.44,335.34 430.68,339.82 438.17,343.37 445.71,344.81"/>
    </edge>
    <edge id=":D1_6" function="internal">
        <lane id=":D1_6_0" index="0" speed="11.04" length="39.15" shape="416.65,331.08 424.95,338.27 427.71,346.41 424.95,354.55 416.65,361.74"/>
    </edge>
    <edge id=":D1_7" function="internal">
        <lane id=":D1_7_0" index="0" speed="7.75" length="23.83" shape="416.65,331.08 420.87,335.78 421.20,341.37 418.12,346.05 412.12,348.01"/>
    </edge>
    <edge id=":D1_8" function="internal">
        <lane id=":D1_8_0" index="0" speed="5.53" length="11.20" shape="412.12,341.61 415.94,341.30 417.43,340.36 416.61,338.81 413.45,336.62"/>
    </edge>
    <edge id=":D1_9" function="internal">
        <lane id=":D1_9_0" index="0" speed="13.89" length="33.60" shape="412.12,341.61 445.71,341.61"/>
        <lane id=":D1_9_1" index="1" speed="13.89" length="33.60" shape="412.12,344.81 445.71,344.81"/>
    </edge>
    <edge id=":D1_11" function="internal">
        <lane id=":D1_11_0" index="0" speed="7.75" length="2.40" shape="412.12,344.81 414.39,345.55"/>
    </edge>
    <edge id=":D1_17" function="internal">
        <lane id=":D1_17_0" index="0" speed="7.75" length="21.43" shape="414.39,345.55 418.12,346.77 421.20,351.45 420.87,357.04 416.65,361.74"/>
    </edge>
    <edge id=":D1_12" function="internal">
        <lane id=":D1_12_0" index="0" speed="5.53" length="11.20" shape="413.45,356.20 416.61,354.01 417.43,352.46 415.94,351.52 412.12,351.21"/>
    </edge>
    <edge id=":D1_13" function="internal">
        <lane id=":D1_13_0" index="0" speed="9.80" length="30.51" shape="413.45,356.20 421.11,350.44 423.93,344.79 421.91,339.27 415.05,333.85"/>
    </edge>
    <edge id=":D1_14" function="internal">
        <lane id=":D1_14_0" index="0" speed="13.89" length="34.92" shape="413.45,356.20 420.74,351.81 429.08,347.03 437.67,343.19 445.71,341.61"/>
        <lane id=":D1_14_1" index="1" speed="13.89" length="34.92" shape="415.05,358.97 422.09,354.65 429.88,350.01 437.92,346.32 445.71,344.81"/>
    </edge>
    <edge id=":D2_0" function="internal">
        <lane id=":D2_0_0" index="0" speed="13.89" length="31.69" shape="106.55,544.48 99.65,548.04 92.55,551.67 86.14,555.98 81.30,561.61"/>
        <lane id=":D2_0_1" index="1" speed="13.89" length="31.69" shape="104.95,541.70 97.87,545.46 90.37,549.48 83.55,554.20 78.53,560.01"/>
    </edge>
    <edge id=":D2_2" function="internal">
        <lane id=":D2_2_0" index="0" speed="11.04" length="39.15" shape="104.95,541.70 94.58,545.30 86.14,543.62 80.47,537.15 78.40,526.37"/>
    </edge>
    <edge id=":D2_3" function="internal">
        <lane id=":D2_3_0" index="0" speed="7.75" length="23.83" shape="104.95,541.70 98.77,543.01 93.76,540.49 91.25,535.49 92.56,529.31"/>
    </edge>
    <edge id=":D2_4" function="internal">
        <lane id=":D2_4_0" index="0" speed="5.53" length="11.20" shape="98.10,532.51 96.46,535.98 96.52,537.74 98.28,537.80 101.75,536.16"/>
    </edge>
    <edge id=":D2_5" function="internal">
        <lane id=":D2_5_0" index="0" speed="13.89" length="33.60" shape="98.10,532.51 81.30,561.61"/>
        <lane id=":D2_5_1" index="1" speed="13.89" length="33.60" shape="95.33,530.91 78.53,560.01"/>
    </edge>
    <edge id=":D2_7" function="internal">
        <lane id=":D2_7_0" index="0" speed="7.75" length="2.40" shape="95.33,530.91 93.54,532.51"/>
    </edge>
    <edge id=":D2_16" function="internal">
        <lane id=":D2_16_0" index="0" speed="7.75" length="21.43" shape="93.54,532.51 90.63,535.13 85.04,535.45 80.36,532.37 78.40,526.37"/>
    </edge>
    <edge id=":D2_8" function="internal">
        <lane id=":D2_8_0" index="0" speed="5.53" length="11.20" shape="84.80,526.37 85.11,530.20 86.05,531.69 87.60,530.86 89.79,527.71"/>
    </edge>
    <edge id=":D2_9" function="internal">
        <lane id=":D2_9_0" index="0" speed="9.80" length="30.51" shape="84.80,526.37 85.96,535.88 89.44,541.15 95.23,542.16 103.35,538.93"/>
    </edge>
    <edge id=":D2_10" function="internal">
        <lane id=":D2_10_0" index="0" speed="13.89" length="34.92" shape="84.80,526.37 84.96,534.88 84.92,544.49 83.96,553.86 81.30,561.61"/>
        <lane id=":D2_10_1" index="1" speed="13.89" length="34.92" shape="81.60,526.37 81.82,534.63 81.94,543.69 81.12,552.51 78.53,560.01"/>
    </edge>
    <edge id=":D2_12" function="internal">
        <lane id=":D2_12_0" index="0" speed="13.89" length="30.89" shape="72.99,556.81 75.44,549.81 75.97,542.09 75.56,534.13 75.20,526.37"/>
    </edge>
    <edge id=":D2_13" function="internal">
        <lane id=":D2_13_0" index="0" speed="13.89" length="33.60" shape="72.99,556.81 89.79,527.71"/>
        <lane id=":D2_13_1" index="1" speed="13.89" length="33.60" shape="75.76,558.41 92.56,529.31"/>
    </edge>
    <edge id=":D2_15" function="internal">
        <lane id=":D2_15_0" index="0" speed="13.89" length="3.77" shape="75.76,558.41 78.23,555.56"/>
    </edge>
    <edge id=":D2_17" function="internal">
        <lane id=":D2_17_0" index="0" speed="13.89" length="30.34" shape="78.23,555.56 80.96,552.42 88.18,547.30 96.09,542.87 103.35,538.93"/>
    </edge>
    <edge id=":D3_0" function="internal">
        <lane id=":D3_0_0" index="0" speed="13.89" length="31.70" shape="75.20,166.45 75.56,158.69 75.97,150.73 75.44,143.01 72.99,136.01"/>
        <lane id=":D3_0_1" index="1" speed="13.89" length="31.70" shape="78.40,166.45 78.69,158.44 78.95,149.93 78.28,141.66 75.76,134.41"/>
    </edge>
    <edge id=":D3_2" function="internal">
        <lane id=":D3_2_0" index="0" speed="11.04" length="39.15" shape="78.40,166.45 80.47,155.67 86.14,149.20 94.58,147.52 104.95,151.12"/>
    </edge>
    <edge id=":D3_3" function="internal">
        <lane id=":D3_3_0" index="0" speed="7.75" length="23.83" shape="78.40,166.45 80.36,160.45 85.04,157.37 90.63,157.69 95.33,161.91"/>
    </edge>
    <edge id=":D3_4" function="internal">
        <lane id=":D3_4_0" index="0" speed="5.53" length="11.20" shape="89.79,165.11 87.60,161.96 86.05,161.13 85.11,162.62 84.80,166.45"/>
    </edge>
    <edge id=":D3_5" function="internal">
        <lane id=":D3_5_0" index="0" speed="13.89" length="33.60" shape="89.79,165.11 72.99,136.01"/>
        <lane id=":D3_5_1" index="1" speed="13.89" length="33.60" shape="92.56,163.51 75.76,134.41"/>
    </edge>
    <edge id=":D3_7" function="internal">
        <lane id=":D3_7_0" index="0" speed="7.75" length="2.40" shape="92.56,163.51 92.06,161.17"/>
    </edge>
    <edge id=":D3_16" function="internal">
        <lane id=":D3_16_0" index="0" speed="7.75" length="21.43" shape="92.06,161.17 91.25,157.33 93.76,152.33 98.77,149.81 104.95,151.12"/>
    </edge>
    <edge id=":D3_8" function="internal">
        <lane id=":D3_8_0" index="0" speed="5.53" length="11.20" shape="101.75,156.66 98.28,155.02 96.52,155.08 96.46,156.84 98.10,160.31"/>
    </edge>
    <edge id=":D3_9" function="internal">
        <lane id=":D3_9_0" index="0" speed="9.80" length="30.51" shape="101.75,156.66 92.93,152.91 86.64,153.29 82.86,157.80 81.60,166.45"/>
    </edge>
    <edge id=":D3_10" function="internal">
        <lane id=":D3_10_0" index="0" speed="13.89" length="34.92" shape="101.75,156.66 94.30,152.54 85.99,147.71 78.37,142.19 72.99,136.01"/>